Circuit: * D:\ltspice\charge_pump.asc

Instance "m56": Length shorter than recommended for a level 1 MOSFET.
Instance "m56": Width narrower than recommended for a level 1 MOSFET.
Instance "m54": Length shorter than recommended for a level 1 MOSFET.
Instance "m54": Width narrower than recommended for a level 1 MOSFET.
Instance "m52": Length shorter than recommended for a level 1 MOSFET.
Instance "m52": Width narrower than recommended for a level 1 MOSFET.
Instance "m51": Length shorter than recommended for a level 1 MOSFET.
Instance "m51": Width narrower than recommended for a level 1 MOSFET.
Instance "m50": Length shorter than recommended for a level 1 MOSFET.
Instance "m50": Width narrower than recommended for a level 1 MOSFET.
Instance "m49": Length shorter than recommended for a level 1 MOSFET.
Instance "m49": Width narrower than recommended for a level 1 MOSFET.
Instance "m48": Length shorter than recommended for a level 1 MOSFET.
Instance "m48": Width narrower than recommended for a level 1 MOSFET.
Instance "m47": Length shorter than recommended for a level 1 MOSFET.
Instance "m47": Width narrower than recommended for a level 1 MOSFET.
Instance "m45": Length shorter than recommended for a level 1 MOSFET.
Instance "m45": Width narrower than recommended for a level 1 MOSFET.
Instance "m42": Length shorter than recommended for a level 1 MOSFET.
Instance "m42": Width narrower than recommended for a level 1 MOSFET.
Instance "m39": Length shorter than recommended for a level 1 MOSFET.
Instance "m39": Width narrower than recommended for a level 1 MOSFET.
Instance "m36": Length shorter than recommended for a level 1 MOSFET.
Instance "m36": Width narrower than recommended for a level 1 MOSFET.
Instance "m32": Length shorter than recommended for a level 1 MOSFET.
Instance "m32": Width narrower than recommended for a level 1 MOSFET.
Instance "m:x3:10": Length shorter than recommended for a level 1 MOSFET.
Instance "m:x3:10": Width narrower than recommended for a level 1 MOSFET.
Instance "m:x3:x2:4": Length shorter than recommended for a level 1 MOSFET.
Instance "m:x3:x2:4": Width narrower than recommended for a level 1 MOSFET.
Instance "m:x3:x2:2": Length shorter than recommended for a level 1 MOSFET.
Instance "m:x3:x2:2": Width narrower than recommended for a level 1 MOSFET.
Instance "m:x3:x7:4": Length shorter than recommended for a level 1 MOSFET.
Instance "m:x3:x7:4": Width narrower than recommended for a level 1 MOSFET.
Instance "m:x3:x7:2": Length shorter than recommended for a level 1 MOSFET.
Instance "m:x3:x7:2": Width narrower than recommended for a level 1 MOSFET.
Instance "m:x3:x6:2": Length shorter than recommended for a level 1 MOSFET.
Instance "m:x3:x6:2": Width narrower than recommended for a level 1 MOSFET.
Instance "m:x3:x5:2": Length shorter than recommended for a level 1 MOSFET.
Instance "m:x3:x5:2": Width narrower than recommended for a level 1 MOSFET.
Instance "m:x3:x4:2": Length shorter than recommended for a level 1 MOSFET.
Instance "m:x3:x4:2": Width narrower than recommended for a level 1 MOSFET.
Instance "m:x3:7": Length shorter than recommended for a level 1 MOSFET.
Instance "m:x3:7": Width narrower than recommended for a level 1 MOSFET.
Instance "m:x3:5": Length shorter than recommended for a level 1 MOSFET.
Instance "m:x3:5": Width narrower than recommended for a level 1 MOSFET.
Instance "m:x3:3": Length shorter than recommended for a level 1 MOSFET.
Instance "m:x3:3": Width narrower than recommended for a level 1 MOSFET.
Instance "m:x3:x1:2": Length shorter than recommended for a level 1 MOSFET.
Instance "m:x3:x1:2": Width narrower than recommended for a level 1 MOSFET.
Instance "m:x3:1": Length shorter than recommended for a level 1 MOSFET.
Instance "m:x3:1": Width narrower than recommended for a level 1 MOSFET.
Instance "m:x2:10": Length shorter than recommended for a level 1 MOSFET.
Instance "m:x2:10": Width narrower than recommended for a level 1 MOSFET.
Instance "m:x2:x2:4": Length shorter than recommended for a level 1 MOSFET.
Instance "m:x2:x2:4": Width narrower than recommended for a level 1 MOSFET.
Instance "m:x2:x2:2": Length shorter than recommended for a level 1 MOSFET.
Instance "m:x2:x2:2": Width narrower than recommended for a level 1 MOSFET.
Instance "m:x2:x7:4": Length shorter than recommended for a level 1 MOSFET.
Instance "m:x2:x7:4": Width narrower than recommended for a level 1 MOSFET.
Instance "m:x2:x7:2": Length shorter than recommended for a level 1 MOSFET.
Instance "m:x2:x7:2": Width narrower than recommended for a level 1 MOSFET.
Instance "m:x2:x6:2": Length shorter than recommended for a level 1 MOSFET.
Instance "m:x2:x6:2": Width narrower than recommended for a level 1 MOSFET.
Instance "m:x2:x5:2": Length shorter than recommended for a level 1 MOSFET.
Instance "m:x2:x5:2": Width narrower than recommended for a level 1 MOSFET.
Instance "m:x2:x4:2": Length shorter than recommended for a level 1 MOSFET.
Instance "m:x2:x4:2": Width narrower than recommended for a level 1 MOSFET.
Instance "m:x2:7": Length shorter than recommended for a level 1 MOSFET.
Instance "m:x2:7": Width narrower than recommended for a level 1 MOSFET.
Instance "m:x2:5": Length shorter than recommended for a level 1 MOSFET.
Instance "m:x2:5": Width narrower than recommended for a level 1 MOSFET.
Instance "m:x2:3": Length shorter than recommended for a level 1 MOSFET.
Instance "m:x2:3": Width narrower than recommended for a level 1 MOSFET.
Instance "m:x2:x1:2": Length shorter than recommended for a level 1 MOSFET.
Instance "m:x2:x1:2": Width narrower than recommended for a level 1 MOSFET.
Instance "m:x2:1": Length shorter than recommended for a level 1 MOSFET.
Instance "m:x2:1": Width narrower than recommended for a level 1 MOSFET.
Instance "m:x1:6": Length shorter than recommended for a level 1 MOSFET.
Instance "m:x1:6": Width narrower than recommended for a level 1 MOSFET.
Instance "m:x1:4": Length shorter than recommended for a level 1 MOSFET.
Instance "m:x1:4": Width narrower than recommended for a level 1 MOSFET.
Instance "m:x1:2": Length shorter than recommended for a level 1 MOSFET.
Instance "m:x1:2": Width narrower than recommended for a level 1 MOSFET.
Instance "m30": Length shorter than recommended for a level 1 MOSFET.
Instance "m30": Width narrower than recommended for a level 1 MOSFET.
Instance "m29": Length shorter than recommended for a level 1 MOSFET.
Instance "m29": Width narrower than recommended for a level 1 MOSFET.
Instance "m28": Length shorter than recommended for a level 1 MOSFET.
Instance "m28": Width narrower than recommended for a level 1 MOSFET.
Instance "m27": Length shorter than recommended for a level 1 MOSFET.
Instance "m27": Width narrower than recommended for a level 1 MOSFET.
Instance "m26": Length shorter than recommended for a level 1 MOSFET.
Instance "m26": Width narrower than recommended for a level 1 MOSFET.
Instance "m25": Length shorter than recommended for a level 1 MOSFET.
Instance "m25": Width narrower than recommended for a level 1 MOSFET.
Instance "m23": Length shorter than recommended for a level 1 MOSFET.
Instance "m23": Width narrower than recommended for a level 1 MOSFET.
Instance "m20": Length shorter than recommended for a level 1 MOSFET.
Instance "m20": Width narrower than recommended for a level 1 MOSFET.
Instance "m17": Length shorter than recommended for a level 1 MOSFET.
Instance "m17": Width narrower than recommended for a level 1 MOSFET.
Instance "m14": Length shorter than recommended for a level 1 MOSFET.
Instance "m14": Width narrower than recommended for a level 1 MOSFET.
Instance "m10": Length shorter than recommended for a level 1 MOSFET.
Instance "m10": Width narrower than recommended for a level 1 MOSFET.
Instance "m7": Length shorter than recommended for a level 1 MOSFET.
Instance "m7": Width narrower than recommended for a level 1 MOSFET.
Instance "m2": Length shorter than recommended for a level 1 MOSFET.
Instance "m2": Width narrower than recommended for a level 1 MOSFET.
Instance "m1": Length shorter than recommended for a level 1 MOSFET.
Instance "m1": Width narrower than recommended for a level 1 MOSFET.
Instance "m6": Length shorter than recommended for a level 1 MOSFET.
Instance "m6": Width narrower than recommended for a level 1 MOSFET.
Instance "m55": Length shorter than recommended for a level 1 MOSFET.
Instance "m55": Width narrower than recommended for a level 1 MOSFET.
Instance "m53": Length shorter than recommended for a level 1 MOSFET.
Instance "m53": Width narrower than recommended for a level 1 MOSFET.
Instance "m46": Length shorter than recommended for a level 1 MOSFET.
Instance "m46": Width narrower than recommended for a level 1 MOSFET.
Instance "m44": Length shorter than recommended for a level 1 MOSFET.
Instance "m44": Width narrower than recommended for a level 1 MOSFET.
Instance "m43": Length shorter than recommended for a level 1 MOSFET.
Instance "m43": Width narrower than recommended for a level 1 MOSFET.
Instance "m41": Length shorter than recommended for a level 1 MOSFET.
Instance "m41": Width narrower than recommended for a level 1 MOSFET.
Instance "m40": Length shorter than recommended for a level 1 MOSFET.
Instance "m40": Width narrower than recommended for a level 1 MOSFET.
Instance "m38": Length shorter than recommended for a level 1 MOSFET.
Instance "m38": Width narrower than recommended for a level 1 MOSFET.
Instance "m37": Length shorter than recommended for a level 1 MOSFET.
Instance "m37": Width narrower than recommended for a level 1 MOSFET.
Instance "m35": Length shorter than recommended for a level 1 MOSFET.
Instance "m35": Width narrower than recommended for a level 1 MOSFET.
Instance "m34": Length shorter than recommended for a level 1 MOSFET.
Instance "m34": Width narrower than recommended for a level 1 MOSFET.
Instance "m33": Length shorter than recommended for a level 1 MOSFET.
Instance "m33": Width narrower than recommended for a level 1 MOSFET.
Instance "m31": Length shorter than recommended for a level 1 MOSFET.
Instance "m31": Width narrower than recommended for a level 1 MOSFET.
Instance "m:x3:9": Length shorter than recommended for a level 1 MOSFET.
Instance "m:x3:9": Width narrower than recommended for a level 1 MOSFET.
Instance "m:x3:x2:3": Length shorter than recommended for a level 1 MOSFET.
Instance "m:x3:x2:3": Width narrower than recommended for a level 1 MOSFET.
Instance "m:x3:x2:1": Length shorter than recommended for a level 1 MOSFET.
Instance "m:x3:x2:1": Width narrower than recommended for a level 1 MOSFET.
Instance "m:x3:x7:3": Length shorter than recommended for a level 1 MOSFET.
Instance "m:x3:x7:3": Width narrower than recommended for a level 1 MOSFET.
Instance "m:x3:x7:1": Length shorter than recommended for a level 1 MOSFET.
Instance "m:x3:x7:1": Width narrower than recommended for a level 1 MOSFET.
Instance "m:x3:x6:1": Length shorter than recommended for a level 1 MOSFET.
Instance "m:x3:x6:1": Width narrower than recommended for a level 1 MOSFET.
Instance "m:x3:x5:1": Length shorter than recommended for a level 1 MOSFET.
Instance "m:x3:x5:1": Width narrower than recommended for a level 1 MOSFET.
Instance "m:x3:x4:1": Length shorter than recommended for a level 1 MOSFET.
Instance "m:x3:x4:1": Width narrower than recommended for a level 1 MOSFET.
Instance "m:x3:8": Length shorter than recommended for a level 1 MOSFET.
Instance "m:x3:8": Width narrower than recommended for a level 1 MOSFET.
Instance "m:x3:6": Length shorter than recommended for a level 1 MOSFET.
Instance "m:x3:6": Width narrower than recommended for a level 1 MOSFET.
Instance "m:x3:4": Length shorter than recommended for a level 1 MOSFET.
Instance "m:x3:4": Width narrower than recommended for a level 1 MOSFET.
Instance "m:x3:x1:1": Length shorter than recommended for a level 1 MOSFET.
Instance "m:x3:x1:1": Width narrower than recommended for a level 1 MOSFET.
Instance "m:x3:2": Length shorter than recommended for a level 1 MOSFET.
Instance "m:x3:2": Width narrower than recommended for a level 1 MOSFET.
Instance "m:x2:9": Length shorter than recommended for a level 1 MOSFET.
Instance "m:x2:9": Width narrower than recommended for a level 1 MOSFET.
Instance "m:x2:x2:3": Length shorter than recommended for a level 1 MOSFET.
Instance "m:x2:x2:3": Width narrower than recommended for a level 1 MOSFET.
Instance "m:x2:x2:1": Length shorter than recommended for a level 1 MOSFET.
Instance "m:x2:x2:1": Width narrower than recommended for a level 1 MOSFET.
Instance "m:x2:x7:3": Length shorter than recommended for a level 1 MOSFET.
Instance "m:x2:x7:3": Width narrower than recommended for a level 1 MOSFET.
Instance "m:x2:x7:1": Length shorter than recommended for a level 1 MOSFET.
Instance "m:x2:x7:1": Width narrower than recommended for a level 1 MOSFET.
Instance "m:x2:x6:1": Length shorter than recommended for a level 1 MOSFET.
Instance "m:x2:x6:1": Width narrower than recommended for a level 1 MOSFET.
Instance "m:x2:x5:1": Length shorter than recommended for a level 1 MOSFET.
Instance "m:x2:x5:1": Width narrower than recommended for a level 1 MOSFET.
Instance "m:x2:x4:1": Length shorter than recommended for a level 1 MOSFET.
Instance "m:x2:x4:1": Width narrower than recommended for a level 1 MOSFET.
Instance "m:x2:8": Length shorter than recommended for a level 1 MOSFET.
Instance "m:x2:8": Width narrower than recommended for a level 1 MOSFET.
Instance "m:x2:6": Length shorter than recommended for a level 1 MOSFET.
Instance "m:x2:6": Width narrower than recommended for a level 1 MOSFET.
Instance "m:x2:4": Length shorter than recommended for a level 1 MOSFET.
Instance "m:x2:4": Width narrower than recommended for a level 1 MOSFET.
Instance "m:x2:x1:1": Length shorter than recommended for a level 1 MOSFET.
Instance "m:x2:x1:1": Width narrower than recommended for a level 1 MOSFET.
Instance "m:x2:2": Length shorter than recommended for a level 1 MOSFET.
Instance "m:x2:2": Width narrower than recommended for a level 1 MOSFET.
Instance "m:x1:5": Length shorter than recommended for a level 1 MOSFET.
Instance "m:x1:5": Width narrower than recommended for a level 1 MOSFET.
Instance "m:x1:3": Length shorter than recommended for a level 1 MOSFET.
Instance "m:x1:3": Width narrower than recommended for a level 1 MOSFET.
Instance "m:x1:1": Length shorter than recommended for a level 1 MOSFET.
Instance "m:x1:1": Width narrower than recommended for a level 1 MOSFET.
Instance "m24": Length shorter than recommended for a level 1 MOSFET.
Instance "m24": Width narrower than recommended for a level 1 MOSFET.
Instance "m22": Length shorter than recommended for a level 1 MOSFET.
Instance "m22": Width narrower than recommended for a level 1 MOSFET.
Instance "m21": Length shorter than recommended for a level 1 MOSFET.
Instance "m21": Width narrower than recommended for a level 1 MOSFET.
Instance "m19": Length shorter than recommended for a level 1 MOSFET.
Instance "m19": Width narrower than recommended for a level 1 MOSFET.
Instance "m18": Length shorter than recommended for a level 1 MOSFET.
Instance "m18": Width narrower than recommended for a level 1 MOSFET.
Instance "m16": Length shorter than recommended for a level 1 MOSFET.
Instance "m16": Width narrower than recommended for a level 1 MOSFET.
Instance "m15": Length shorter than recommended for a level 1 MOSFET.
Instance "m15": Width narrower than recommended for a level 1 MOSFET.
Instance "m13": Length shorter than recommended for a level 1 MOSFET.
Instance "m13": Width narrower than recommended for a level 1 MOSFET.
Instance "m12": Length shorter than recommended for a level 1 MOSFET.
Instance "m12": Width narrower than recommended for a level 1 MOSFET.
Instance "m11": Length shorter than recommended for a level 1 MOSFET.
Instance "m11": Width narrower than recommended for a level 1 MOSFET.
Instance "m9": Length shorter than recommended for a level 1 MOSFET.
Instance "m9": Width narrower than recommended for a level 1 MOSFET.
Instance "m8": Length shorter than recommended for a level 1 MOSFET.
Instance "m8": Width narrower than recommended for a level 1 MOSFET.
Instance "m4": Length shorter than recommended for a level 1 MOSFET.
Instance "m4": Width narrower than recommended for a level 1 MOSFET.
Instance "m3": Length shorter than recommended for a level 1 MOSFET.
Instance "m3": Width narrower than recommended for a level 1 MOSFET.
Instance "m5": Length shorter than recommended for a level 1 MOSFET.
Instance "m5": Width narrower than recommended for a level 1 MOSFET.
Early termination of direct N-R iteration.
Direct Newton iteration failed to find .op point.  (Use ".option noopiter" to skip.)
Starting Gmin stepping
Gmin = 10
Gmin = 1.07374
Gmin = 0.115292
Gmin = 0.0123794
Gmin = 0.00132923
Gmin = 0.000142725
Gmin = 1.5325e-005
Gmin = 1.6455e-006
Gmin = 1.76685e-007
Gmin = 1.89714e-008
Gmin = 2.03704e-009
Gmin = 2.18725e-010
Gmin = 2.34854e-011
vernier = 0.5
vernier = 0.25
vernier = 0.125
vernier = 0.0625
Gmin = 7.6957e-012
vernier = 0.03125
vernier = 0.015625
vernier = 0.0078125
vernier = 0.00390625
vernier = 0.00195313
vernier = 0.000976563
vernier = 0.000488281
Gmin = 0
Gmin stepping failed

Starting source stepping with srcstepmethod=0
Source Step = 3.0303%
Source Step = 33.3333%
Source Step = 63.6364%
Source Step = 93.9394%
Source stepping succeeded in finding the operating point.

Heightened Def Con from 2.00674e-007 ++++++++++++++++++to 2.00715e-007
Heightened Def Con from 5.00674e-007 +++++++++++++++++++++to 5.00675e-007
Heightened Def Con from 5.00675e-007 ++++++++++++++++++++to 5.00716e-007
Heightened Def Con from 4.20125e-006 +++++++++++++++++++++++to 4.2021e-006
Heightened Def Con from 4.2021e-006 ++++++++++++++++++++++to 4.2051e-006
Heightened Def Con from 4.2051e-006 ++++++++++++++++++++to 4.2081e-006
Heightened Def Con from 4.2081e-006 ++++++++++++++++to 4.2111e-006
Heightened Def Con from 4.50067e-006 ++++++++++to 4.50067e-006
Heightened Def Con from 8.20067e-006 ++++++++++++++++++++++to 8.20105e-006
Heightened Def Con from 8.20105e-006 +++++++++++++++++++++to 8.20405e-006
Heightened Def Con from 8.20405e-006 +++++++++++++++++++to 8.20705e-006
Heightened Def Con from 8.20705e-006 ++++++++++++++++++to 8.21005e-006
Heightened Def Con from 8.50067e-006 +++++++++++++++++++++to 8.50067e-006
Heightened Def Con from 8.50067e-006 ++++++++++++++++++++to 8.50072e-006
Heightened Def Con from 1.62007e-005 ++++++++++++++++++++++to 1.62008e-005
Heightened Def Con from 1.62008e-005 +++++++++++++++++++++to 1.62038e-005
Heightened Def Con from 1.62038e-005 +++++++++++++++++++to 1.62068e-005
Heightened Def Con from 1.62068e-005 ++++++++++++++++++to 1.62098e-005
Heightened Def Con from 1.65007e-005 +++++++++++++++++++++to 1.65007e-005
Heightened Def Con from 1.65007e-005 ++++++++++++++++++++to 1.65007e-005

Date: Sat Jun 03 11:19:58 2023
Total elapsed time: 3.968 seconds.

tnom = 27
temp = 27
method = Gear
totiter = 63113
traniter = 61128
tranpoints = 7910
accept = 2882
rejected = 5440
matrix size = 77
fillins = 155
solver = Normal
Thread vector: 25.7/13.4[4] 60.3/27.4[4] 7.5/5.2[4] 0.8/2.0[1]  2592/500
Matrix Compiler1: 20.91 KB object code size  14.0/22.9/[8.6]
Matrix Compiler2: 12.64 KB object code size  4.0/3.7/[1.4]

