Circuit: * D:\ltspice\divider.asc

WARNING: Less than two connections to node D.  This node is used by V2.
WARNING: Less than two connections to node N015.  This node is used by V3.
WARNING: Less than two connections to node CLR.  This node is used by V4.
WARNING: Less than two connections to node PRE.  This node is used by V5.
Instance "m38": Length shorter than recommended for a level 1 MOSFET.
Instance "m38": Width narrower than recommended for a level 1 MOSFET.
Instance "m37": Length shorter than recommended for a level 1 MOSFET.
Instance "m37": Width narrower than recommended for a level 1 MOSFET.
Instance "m34": Length shorter than recommended for a level 1 MOSFET.
Instance "m34": Width narrower than recommended for a level 1 MOSFET.
Instance "m33": Length shorter than recommended for a level 1 MOSFET.
Instance "m33": Width narrower than recommended for a level 1 MOSFET.
Instance "m31": Length shorter than recommended for a level 1 MOSFET.
Instance "m31": Width narrower than recommended for a level 1 MOSFET.
Instance "m27": Length shorter than recommended for a level 1 MOSFET.
Instance "m27": Width narrower than recommended for a level 1 MOSFET.
Instance "m26": Length shorter than recommended for a level 1 MOSFET.
Instance "m26": Width narrower than recommended for a level 1 MOSFET.
Instance "m22": Length shorter than recommended for a level 1 MOSFET.
Instance "m22": Width narrower than recommended for a level 1 MOSFET.
Instance "m21": Length shorter than recommended for a level 1 MOSFET.
Instance "m21": Width narrower than recommended for a level 1 MOSFET.
Instance "m18": Length shorter than recommended for a level 1 MOSFET.
Instance "m18": Width narrower than recommended for a level 1 MOSFET.
Instance "m17": Length shorter than recommended for a level 1 MOSFET.
Instance "m17": Width narrower than recommended for a level 1 MOSFET.
Instance "m15": Length shorter than recommended for a level 1 MOSFET.
Instance "m15": Width narrower than recommended for a level 1 MOSFET.
Instance "m14": Length shorter than recommended for a level 1 MOSFET.
Instance "m14": Width narrower than recommended for a level 1 MOSFET.
Instance "m13": Length shorter than recommended for a level 1 MOSFET.
Instance "m13": Width narrower than recommended for a level 1 MOSFET.
Instance "m7": Length shorter than recommended for a level 1 MOSFET.
Instance "m7": Width narrower than recommended for a level 1 MOSFET.
Instance "m6": Length shorter than recommended for a level 1 MOSFET.
Instance "m6": Width narrower than recommended for a level 1 MOSFET.
Instance "m3": Length shorter than recommended for a level 1 MOSFET.
Instance "m3": Width narrower than recommended for a level 1 MOSFET.
Instance "m2": Length shorter than recommended for a level 1 MOSFET.
Instance "m2": Width narrower than recommended for a level 1 MOSFET.
Instance "m40": Length shorter than recommended for a level 1 MOSFET.
Instance "m40": Width narrower than recommended for a level 1 MOSFET.
Instance "m39": Length shorter than recommended for a level 1 MOSFET.
Instance "m39": Width narrower than recommended for a level 1 MOSFET.
Instance "m36": Length shorter than recommended for a level 1 MOSFET.
Instance "m36": Width narrower than recommended for a level 1 MOSFET.
Instance "m35": Length shorter than recommended for a level 1 MOSFET.
Instance "m35": Width narrower than recommended for a level 1 MOSFET.
Instance "m32": Length shorter than recommended for a level 1 MOSFET.
Instance "m32": Width narrower than recommended for a level 1 MOSFET.
Instance "m30": Length shorter than recommended for a level 1 MOSFET.
Instance "m30": Width narrower than recommended for a level 1 MOSFET.
Instance "m29": Length shorter than recommended for a level 1 MOSFET.
Instance "m29": Width narrower than recommended for a level 1 MOSFET.
Instance "m28": Length shorter than recommended for a level 1 MOSFET.
Instance "m28": Width narrower than recommended for a level 1 MOSFET.
Instance "m25": Length shorter than recommended for a level 1 MOSFET.
Instance "m25": Width narrower than recommended for a level 1 MOSFET.
Instance "m24": Length shorter than recommended for a level 1 MOSFET.
Instance "m24": Width narrower than recommended for a level 1 MOSFET.
Instance "m23": Length shorter than recommended for a level 1 MOSFET.
Instance "m23": Width narrower than recommended for a level 1 MOSFET.
Instance "m20": Length shorter than recommended for a level 1 MOSFET.
Instance "m20": Width narrower than recommended for a level 1 MOSFET.
Instance "m19": Length shorter than recommended for a level 1 MOSFET.
Instance "m19": Width narrower than recommended for a level 1 MOSFET.
Instance "m16": Length shorter than recommended for a level 1 MOSFET.
Instance "m16": Width narrower than recommended for a level 1 MOSFET.
Instance "m12": Length shorter than recommended for a level 1 MOSFET.
Instance "m12": Width narrower than recommended for a level 1 MOSFET.
Instance "m11": Length shorter than recommended for a level 1 MOSFET.
Instance "m11": Width narrower than recommended for a level 1 MOSFET.
Instance "m10": Length shorter than recommended for a level 1 MOSFET.
Instance "m10": Width narrower than recommended for a level 1 MOSFET.
Instance "m9": Length shorter than recommended for a level 1 MOSFET.
Instance "m9": Width narrower than recommended for a level 1 MOSFET.
Instance "m8": Length shorter than recommended for a level 1 MOSFET.
Instance "m8": Width narrower than recommended for a level 1 MOSFET.
Instance "m5": Length shorter than recommended for a level 1 MOSFET.
Instance "m5": Width narrower than recommended for a level 1 MOSFET.
Instance "m4": Length shorter than recommended for a level 1 MOSFET.
Instance "m4": Width narrower than recommended for a level 1 MOSFET.
Instance "m1": Length shorter than recommended for a level 1 MOSFET.
Instance "m1": Width narrower than recommended for a level 1 MOSFET.
Direct Newton iteration for .op point succeeded.
Changing Tseed to 1e-008
Changing Tseed to 1e-010
Heightened Def Con from 2.2975e-008 to 2.2975e-008
Heightened Def Con from 2.2975e-008 to 2.2975e-008
Heightened Def Con from 2.2975e-008 to 2.3975e-008
Heightened Def Con from 2.3975e-008 to 2.3975e-008
Heightened Def Con from 2.3975e-008 to 2.39752e-008
Heightened Def Con from 2.39752e-008 to 2.39752e-008
Heightened Def Con from 2.39752e-008 to 2.39752e-008
Heightened Def Con from 2.39752e-008 to 2.39752e-008
Heightened Def Con from 2.39752e-008 to 2.39752e-008
Heightened Def Con from 2.39752e-008 to 2.39755e-008
Heightened Def Con from 2.39755e-008 to 2.39755e-008
Heightened Def Con from 2.39755e-008 to 2.39755e-008
Heightened Def Con from 2.39755e-008 to 2.39755e-008
Heightened Def Con from 2.39755e-008 to 2.49755e-008
Heightened Def Con from 2.49755e-008 to 2.49755e-008
Heightened Def Con from 2.49755e-008 to 2.49758e-008
Heightened Def Con from 2.49758e-008 to 2.49758e-008
Heightened Def Con from 2.49758e-008 to 2.49758e-008
Heightened Def Con from 2.49758e-008 to 2.49758e-008
Heightened Def Con from 2.49758e-008 to 2.49758e-008
Heightened Def Con from 2.49758e-008 to 2.49758e-008
Heightened Def Con from 2.49758e-008 to 2.49758e-008
Heightened Def Con from 2.49758e-008 to 2.49758e-008
Heightened Def Con from 2.49758e-008 to 2.49758e-008
Heightened Def Con from 2.49758e-008 to 2.49758e-008
Heightened Def Con from 2.49758e-008 to 2.49758e-008
Heightened Def Con from 2.49758e-008 to 2.49758e-008
Heightened Def Con from 2.49758e-008 to 2.49758e-008
Heightened Def Con from 2.49758e-008 to 2.49758e-008
Heightened Def Con from 2.49758e-008 to 2.49758e-008
Heightened Def Con from 2.49758e-008 to 2.49758e-008
Heightened Def Con from 2.49758e-008 to 2.49758e-008
Heightened Def Con from 2.49758e-008 to 2.49758e-008
Heightened Def Con from 2.49758e-008 to 2.49758e-008
Heightened Def Con from 2.49758e-008 to 2.49758e-008
Heightened Def Con from 2.49758e-008 to 2.49758e-008
Heightened Def Con from 2.49758e-008 to 2.49758e-008
Heightened Def Con from 2.49758e-008 to 2.49758e-008
Heightened Def Con from 2.49758e-008 to 2.49758e-008
Heightened Def Con from 2.49758e-008 to 2.49758e-008
Heightened Def Con from 2.49758e-008 to 2.49758e-008
Heightened Def Con from 2.49758e-008 to 2.4976e-008
Heightened Def Con from 2.4976e-008 to 2.4976e-008
Heightened Def Con from 2.4976e-008 to 2.4976e-008
Heightened Def Con from 2.4976e-008 to 2.4976e-008
Heightened Def Con from 2.4976e-008 to 2.4976e-008
Heightened Def Con from 2.4976e-008 to 2.4976e-008
Heightened Def Con from 2.4976e-008 to 2.4976e-008
Heightened Def Con from 2.4976e-008 to 2.4976e-008
Heightened Def Con from 2.4976e-008 to 2.5976e-008
Heightened Def Con from 2.5976e-008 to 2.6976e-008
Heightened Def Con from 2.6976e-008 to 2.6976e-008
Heightened Def Con from 2.6976e-008 to 2.6976e-008
Heightened Def Con from 2.6976e-008 to 2.6976e-008
Heightened Def Con from 2.6976e-008 to 2.6976e-008
Heightened Def Con from 2.6976e-008 to 2.6976e-008
Heightened Def Con from 2.6976e-008 to 2.7101e-008
Heightened Def Con from 2.7101e-008 to 2.7101e-008
Heightened Def Con from 2.7101e-008 to 2.7226e-008
Heightened Def Con from 2.7226e-008 to 2.7226e-008
Heightened Def Con from 2.7226e-008 to 2.7351e-008
Heightened Def Con from 2.7351e-008 to 2.8351e-008
Heightened Def Con from 2.8351e-008 to 2.8353e-008
Heightened Def Con from 2.8353e-008 to 2.8353e-008
Heightened Def Con from 2.8353e-008 to 2.8353e-008
Heightened Def Con from 2.8353e-008 to 2.8353e-008
Heightened Def Con from 2.8353e-008 to 2.83686e-008
Heightened Def Con from 2.83686e-008 to 2.83686e-008
Heightened Def Con from 2.83686e-008 to 2.83686e-008
Heightened Def Con from 2.83686e-008 to 2.83842e-008
Heightened Def Con from 2.83842e-008 to 2.83842e-008
Heightened Def Con from 2.83842e-008 to 2.83842e-008
Heightened Def Con from 2.83842e-008 to 2.83842e-008
Heightened Def Con from 2.83842e-008 to 2.83842e-008
Heightened Def Con from 2.83842e-008 to 2.83842e-008
Heightened Def Con from 2.83842e-008 to 2.83842e-008
Heightened Def Con from 2.83842e-008 to 2.83842e-008
Heightened Def Con from 2.83842e-008 to 2.83845e-008
Heightened Def Con from 2.83845e-008 to 2.84001e-008
Heightened Def Con from 2.84001e-008 to 2.84157e-008
Heightened Def Con from 2.84157e-008 to 2.84158e-008
Heightened Def Con from 2.84158e-008 to 2.84158e-008
Heightened Def Con from 2.84158e-008 to 2.84158e-008
Heightened Def Con from 2.84158e-008 to 2.84158e-008
Heightened Def Con from 2.84158e-008 to 2.84158e-008
Heightened Def Con from 2.84158e-008 to 2.8416e-008
Heightened Def Con from 2.8416e-008 to 2.8416e-008
Heightened Def Con from 2.8416e-008 to 2.8416e-008
Heightened Def Con from 2.8416e-008 to 2.8418e-008
Heightened Def Con from 2.8418e-008 to 2.8418e-008
Heightened Def Con from 2.8418e-008 to 2.8418e-008
Heightened Def Con from 2.8418e-008 to 2.8418e-008
Heightened Def Con from 2.8418e-008 to 2.8418e-008
Heightened Def Con from 2.8418e-008 to 2.8418e-008
Heightened Def Con from 2.8418e-008 to 2.8418e-008
Heightened Def Con from 2.8418e-008 to 2.8418e-008
Heightened Def Con from 2.8418e-008 to 2.8418e-008
Heightened Def Con from 2.8418e-008 to 2.8418e-008
Heightened Def Con from 2.8418e-008 to 2.8418e-008
Heightened Def Con from 2.8418e-008 to 2.8418e-008
Heightened Def Con from 2.8418e-008 to 2.8418e-008
Heightened Def Con from 2.8418e-008 to 2.8418e-008
Heightened Def Con from 2.8418e-008 to 2.8418e-008
Heightened Def Con from 2.8418e-008 to 2.8418e-008
Heightened Def Con from 2.8418e-008 to 2.8418e-008
Heightened Def Con from 2.8418e-008 to 2.8418e-008
Heightened Def Con from 2.8418e-008 to 2.8418e-008
Heightened Def Con from 2.8418e-008 to 2.84336e-008
Heightened Def Con from 2.84336e-008 to 2.84336e-008
Heightened Def Con from 2.84336e-008 to 2.84356e-008
Heightened Def Con from 2.84356e-008 to 2.84356e-008
Heightened Def Con from 2.84356e-008 to 2.84512e-008
Heightened Def Con from 2.84512e-008 to 2.84512e-008
Heightened Def Con from 2.84512e-008 to 2.84512e-008
Heightened Def Con from 2.84512e-008 to 2.84512e-008
Heightened Def Con from 2.84512e-008 to 2.84512e-008
Heightened Def Con from 2.84512e-008 to 2.84512e-008
Heightened Def Con from 2.84512e-008 to 2.84512e-008
Heightened Def Con from 2.84512e-008 to 2.84512e-008
Heightened Def Con from 2.84512e-008 to 2.84512e-008
Heightened Def Con from 2.84512e-008 to 2.84512e-008
Heightened Def Con from 2.84512e-008 to 2.84532e-008
Heightened Def Con from 2.84532e-008 to 2.84532e-008
Heightened Def Con from 2.84532e-008 to 2.84688e-008
Heightened Def Con from 2.84688e-008 to 2.84688e-008
Heightened Def Con from 2.84688e-008 to 2.84691e-008
Heightened Def Con from 2.84691e-008 to 2.84691e-008
Heightened Def Con from 2.84691e-008 to 2.84691e-008
Heightened Def Con from 2.84691e-008 to 2.84691e-008
Heightened Def Con from 2.84691e-008 to 2.84691e-008
Heightened Def Con from 2.84691e-008 to 2.84691e-008
Heightened Def Con from 2.84691e-008 to 2.84691e-008
Heightened Def Con from 2.84691e-008 to 2.84691e-008
Heightened Def Con from 2.84691e-008 to 2.84691e-008
Heightened Def Con from 2.84691e-008 to 2.84691e-008
Heightened Def Con from 2.84691e-008 to 2.84691e-008
Heightened Def Con from 2.84691e-008 to 2.8471e-008
Heightened Def Con from 2.8471e-008 to 2.8471e-008
Heightened Def Con from 2.8471e-008 to 2.8471e-008
Heightened Def Con from 2.8471e-008 to 2.84713e-008
Heightened Def Con from 2.84713e-008 to 2.84713e-008
Heightened Def Con from 2.84713e-008 to 2.84713e-008
Heightened Def Con from 2.84713e-008 to 2.84713e-008
Heightened Def Con from 2.84713e-008 to 2.84732e-008
Heightened Def Con from 2.84732e-008 to 2.85982e-008
Heightened Def Con from 2.85982e-008 to 2.85982e-008
Heightened Def Con from 2.85982e-008 to 2.85982e-008
Heightened Def Con from 2.85982e-008 to 2.86002e-008
Heightened Def Con from 2.86002e-008 to 2.86002e-008
Heightened Def Con from 2.86002e-008 to 2.86002e-008
Heightened Def Con from 2.86002e-008 to 2.86158e-008
Heightened Def Con from 2.86158e-008 to 2.86314e-008
Heightened Def Con from 2.86314e-008 to 2.86314e-008
Heightened Def Con from 2.86314e-008 to 2.86315e-008
Heightened Def Con from 2.86315e-008 to 2.87565e-008
Heightened Def Con from 2.87565e-008 to 2.88815e-008
Heightened Def Con from 2.88815e-008 to 2.88971e-008
Heightened Def Con from 2.88971e-008 to 2.98971e-008
Heightened Def Con from 2.98971e-008 to 2.98971e-008
Heightened Def Con from 2.98971e-008 to 2.98971e-008
Heightened Def Con from 2.98971e-008 to 3.00221e-008
Heightened Def Con from 3.00221e-008 to 3.00221e-008
Heightened Def Con from 3.00221e-008 to 3.00221e-008
Heightened Def Con from 3.00221e-008 to 3.00221e-008
Heightened Def Con from 3.00221e-008 to 3.00221e-008
Heightened Def Con from 3.00221e-008 to 3.00221e-008
Heightened Def Con from 3.00221e-008 to 3.00377e-008
Heightened Def Con from 3.00377e-008 to 3.00377e-008
Heightened Def Con from 3.00377e-008 to 3.00377e-008
Heightened Def Con from 3.00377e-008 to 3.01627e-008
Heightened Def Con from 3.01627e-008 to 3.01627e-008
Heightened Def Con from 3.01627e-008 to 3.01647e-008
Heightened Def Con from 3.01647e-008 to 3.11647e-008
Heightened Def Con from 3.11647e-008 to 3.11647e-008
Heightened Def Con from 3.11647e-008 to 3.11647e-008
Heightened Def Con from 3.11647e-008 to 3.11647e-008
Heightened Def Con from 3.11647e-008 to 3.11649e-008
Heightened Def Con from 3.11649e-008 to 3.1165e-008
Heightened Def Con from 3.1165e-008 to 3.1165e-008
Heightened Def Con from 3.1165e-008 to 3.1165e-008
Heightened Def Con from 3.1165e-008 to 3.1165e-008
Heightened Def Con from 3.1165e-008 to 3.129e-008
Heightened Def Con from 3.129e-008 to 3.129e-008
Heightened Def Con from 3.129e-008 to 3.1415e-008
Heightened Def Con from 3.1415e-008 to 3.1415e-008
Heightened Def Con from 3.1415e-008 to 3.1415e-008
Heightened Def Con from 3.1415e-008 to 3.1415e-008
Heightened Def Con from 3.1415e-008 to 3.1415e-008
Heightened Def Con from 3.1415e-008 to 3.2415e-008
Heightened Def Con from 3.2415e-008 to 3.24306e-008
Heightened Def Con from 3.24306e-008 to 3.24309e-008
Heightened Def Con from 3.24309e-008 to 3.24309e-008
Heightened Def Con from 3.24309e-008 to 3.24309e-008
Heightened Def Con from 3.24309e-008 to 3.24309e-008
Heightened Def Con from 3.24309e-008 to 3.24309e-008
Heightened Def Con from 3.24309e-008 to 3.24309e-008
Heightened Def Con from 3.24309e-008 to 3.24309e-008
Heightened Def Con from 3.24309e-008 to 3.24309e-008
Heightened Def Con from 3.24309e-008 to 3.24328e-008
Heightened Def Con from 3.24328e-008 to 3.24328e-008
Heightened Def Con from 3.24328e-008 to 3.24328e-008
Heightened Def Con from 3.24328e-008 to 3.24328e-008
Heightened Def Con from 3.24328e-008 to 3.34328e-008
Heightened Def Con from 3.34328e-008 to 3.34328e-008
Heightened Def Con from 3.34328e-008 to 3.34328e-008
Heightened Def Con from 3.34328e-008 to 3.34328e-008
Heightened Def Con from 3.34328e-008 to 3.34328e-008
Heightened Def Con from 3.34328e-008 to 3.34484e-008
Heightened Def Con from 3.34484e-008 to 3.34484e-008
Heightened Def Con from 3.34484e-008 to 3.34487e-008
Heightened Def Con from 3.34487e-008 to 3.34487e-008
Heightened Def Con from 3.34487e-008 to 3.34487e-008
Heightened Def Con from 3.34487e-008 to 3.34487e-008
Heightened Def Con from 3.34487e-008 to 3.34487e-008
Heightened Def Con from 3.34487e-008 to 3.34487e-008
Heightened Def Con from 3.34487e-008 to 3.34487e-008
Heightened Def Con from 3.34487e-008 to 3.34487e-008
Heightened Def Con from 3.34487e-008 to 3.34487e-008
Heightened Def Con from 3.34487e-008 to 3.34487e-008
Heightened Def Con from 3.34487e-008 to 3.34487e-008
Heightened Def Con from 3.34487e-008 to 3.34643e-008
Heightened Def Con from 3.34643e-008 to 3.34643e-008
Heightened Def Con from 3.34643e-008 to 3.44643e-008
Heightened Def Con from 3.44643e-008 to 3.44643e-008
Heightened Def Con from 3.44643e-008 to 3.44799e-008
Heightened Def Con from 3.44799e-008 to 3.44799e-008
Heightened Def Con from 3.44799e-008 to 3.44799e-008
Heightened Def Con from 3.44799e-008 to 3.44799e-008
Heightened Def Con from 3.44799e-008 to 3.44799e-008
Heightened Def Con from 3.44799e-008 to 3.44799e-008
Heightened Def Con from 3.44799e-008 to 3.44799e-008
Heightened Def Con from 3.44799e-008 to 3.46049e-008
Heightened Def Con from 3.46049e-008 to 3.46049e-008
Heightened Def Con from 3.46049e-008 to 3.4605e-008
Heightened Def Con from 3.4605e-008 to 3.4605e-008
Heightened Def Con from 3.4605e-008 to 3.5605e-008
Heightened Def Con from 3.5605e-008 to 3.56052e-008
Heightened Def Con from 3.56052e-008 to 3.56052e-008
Heightened Def Con from 3.56052e-008 to 3.56072e-008
Heightened Def Con from 3.56072e-008 to 3.56072e-008
Heightened Def Con from 3.56072e-008 to 3.56072e-008
Heightened Def Con from 3.56072e-008 to 3.56072e-008
Heightened Def Con from 3.56072e-008 to 3.56072e-008
Heightened Def Con from 3.56072e-008 to 3.56074e-008
Heightened Def Con from 3.56074e-008 to 3.56074e-008
Heightened Def Con from 3.56074e-008 to 3.56074e-008
Heightened Def Con from 3.56074e-008 to 3.56074e-008
Heightened Def Con from 3.56074e-008 to 3.56074e-008
Heightened Def Con from 3.56074e-008 to 3.56074e-008
Heightened Def Con from 3.56074e-008 to 3.56074e-008
Heightened Def Con from 3.56074e-008 to 3.66074e-008
Heightened Def Con from 3.66074e-008 to 3.66094e-008
Heightened Def Con from 3.66094e-008 to 3.66113e-008
Heightened Def Con from 3.66113e-008 to 3.67363e-008
Heightened Def Con from 3.67363e-008 to 3.67363e-008
Heightened Def Con from 3.67363e-008 to 3.67363e-008
Heightened Def Con from 3.67363e-008 to 3.68613e-008
Heightened Def Con from 3.68613e-008 to 3.68613e-008
Heightened Def Con from 3.68613e-008 to 3.78613e-008
Heightened Def Con from 3.78613e-008 to 3.78769e-008
Heightened Def Con from 3.78769e-008 to 3.78769e-008
Heightened Def Con from 3.78769e-008 to 3.78769e-008
Heightened Def Con from 3.78769e-008 to 3.7877e-008
Heightened Def Con from 3.7877e-008 to 3.78926e-008
Heightened Def Con from 3.78926e-008 to 3.78926e-008
Heightened Def Con from 3.78926e-008 to 3.88926e-008
Heightened Def Con from 3.88926e-008 to 3.88926e-008
Heightened Def Con from 3.88926e-008 to 3.88926e-008
Heightened Def Con from 3.88926e-008 to 3.88926e-008
Heightened Def Con from 3.88926e-008 to 3.88926e-008
Heightened Def Con from 3.88926e-008 to 3.88926e-008
Heightened Def Con from 3.88926e-008 to 3.88926e-008
Heightened Def Con from 3.88926e-008 to 3.88926e-008
Heightened Def Con from 3.88926e-008 to 3.88928e-008
Heightened Def Con from 3.88928e-008 to 3.88928e-008
Heightened Def Con from 3.88928e-008 to 3.88928e-008
Heightened Def Con from 3.88928e-008 to 3.88928e-008
Heightened Def Con from 3.88928e-008 to 3.88928e-008
Heightened Def Con from 3.88928e-008 to 3.88928e-008
Heightened Def Con from 3.88928e-008 to 3.88928e-008
Heightened Def Con from 3.88928e-008 to 3.88928e-008
Heightened Def Con from 3.88928e-008 to 3.98928e-008
Heightened Def Con from 3.98928e-008 to 3.98928e-008
Heightened Def Con from 3.98928e-008 to 4.00178e-008
Heightened Def Con from 4.00178e-008 to 4.00181e-008
Heightened Def Con from 4.00181e-008 to 4.00181e-008
Heightened Def Con from 4.00181e-008 to 4.00181e-008
Heightened Def Con from 4.00181e-008 to 4.00181e-008
Heightened Def Con from 4.00181e-008 to 4.10181e-008
Heightened Def Con from 4.10181e-008 to 4.10181e-008
Heightened Def Con from 4.10181e-008 to 4.10181e-008
Heightened Def Con from 4.10181e-008 to 4.10181e-008
Heightened Def Con from 4.10181e-008 to 4.10181e-008
Heightened Def Con from 4.10181e-008 to 4.10337e-008
Heightened Def Con from 4.10337e-008 to 4.10337e-008
Heightened Def Con from 4.10337e-008 to 4.1034e-008
Heightened Def Con from 4.1034e-008 to 4.1034e-008
Heightened Def Con from 4.1034e-008 to 4.1034e-008
Heightened Def Con from 4.1034e-008 to 4.2034e-008
Heightened Def Con from 4.4034e-008 to 4.4034e-008
Heightened Def Con from 4.4034e-008 to 4.4034e-008
Heightened Def Con from 4.4034e-008 to 4.4034e-008
Heightened Def Con from 4.4034e-008 to 4.4034e-008
Heightened Def Con from 4.4034e-008 to 4.4034e-008
Heightened Def Con from 4.4034e-008 to 4.4034e-008
Heightened Def Con from 4.4034e-008 to 4.4034e-008
Heightened Def Con from 4.4034e-008 to 4.4034e-008
Heightened Def Con from 4.4034e-008 to 4.5034e-008
Heightened Def Con from 4.5034e-008 to 4.50343e-008
Heightened Def Con from 6.10107e-005 ++++++++++++to 6.10107e-005
Heightened Def Con from 7.40487e-005 to 7.40497e-005
Heightened Def Con from 7.405e-005 to 7.405e-005
Heightened Def Con from 7.405e-005 to 7.405e-005
Heightened Def Con from 7.405e-005 ++to 7.4051e-005
Heightened Def Con from 7.4051e-005 ++to 7.4052e-005
Heightened Def Con from 7.40522e-005 +to 7.40522e-005
Heightened Def Con from 7.40522e-005 ++to 7.40532e-005
Heightened Def Con from 7.40532e-005 to 7.40532e-005
Heightened Def Con from 7.40532e-005 ++to 7.40542e-005
Heightened Def Con from 7.40542e-005 ++to 7.40552e-005
Heightened Def Con from 7.40552e-005 +to 7.40562e-005
Heightened Def Con from 7.40562e-005 +to 7.40562e-005
Heightened Def Con from 7.40562e-005 ++to 7.40564e-005
Heightened Def Con from 7.40564e-005 +to 7.40564e-005
Heightened Def Con from 7.40564e-005 ++to 7.40574e-005
Heightened Def Con from 7.40574e-005 to 7.40574e-005
Heightened Def Con from 7.40574e-005 to 7.40574e-005
Heightened Def Con from 7.40574e-005 to 7.40574e-005
Heightened Def Con from 7.40574e-005 ++to 7.40584e-005
Heightened Def Con from 7.40584e-005 +to 7.40584e-005
Heightened Def Con from 7.40584e-005 to 7.40585e-005
Heightened Def Con from 7.40585e-005 +to 7.40585e-005
Heightened Def Con from 7.40585e-005 +to 7.40585e-005
Heightened Def Con from 7.40585e-005 ++to 7.40595e-005
Heightened Def Con from 7.40595e-005 to 7.40595e-005
Heightened Def Con from 7.40595e-005 +to 7.40595e-005
Heightened Def Con from 7.40595e-005 to 7.40595e-005
Heightened Def Con from 7.40595e-005 to 7.40605e-005
Heightened Def Con from 7.40605e-005 ++to 7.40606e-005
Heightened Def Con from 7.40606e-005 ++to 7.40616e-005
Heightened Def Con from 7.40616e-005 ++to 7.40626e-005
Heightened Def Con from 7.40626e-005 +to 7.40626e-005
Heightened Def Con from 7.40626e-005 ++to 7.40628e-005
Heightened Def Con from 7.40628e-005 +to 7.40628e-005
Heightened Def Con from 7.40628e-005 +to 7.40628e-005
Heightened Def Con from 7.40628e-005 to 7.40628e-005
Heightened Def Con from 7.40628e-005 ++to 7.40638e-005
Heightened Def Con from 7.40638e-005 to 7.40638e-005
Heightened Def Con from 7.40638e-005 +to 7.40638e-005
Heightened Def Con from 7.40638e-005 to 7.40638e-005
Heightened Def Con from 7.40638e-005 ++to 7.40648e-005
Heightened Def Con from 7.40648e-005 ++to 7.40658e-005
Heightened Def Con from 7.40658e-005 +to 7.40659e-005
Heightened Def Con from 7.40659e-005 +to 7.40659e-005
Heightened Def Con from 7.40659e-005 +to 7.40659e-005
Heightened Def Con from 7.40659e-005 +to 7.40659e-005
Heightened Def Con from 7.40659e-005 +to 7.40659e-005
Heightened Def Con from 7.40659e-005 to 7.40659e-005
Heightened Def Con from 7.40659e-005 to 7.40659e-005
Heightened Def Con from 7.40659e-005 +to 7.40659e-005
Heightened Def Con from 7.40659e-005 +to 7.40659e-005
Heightened Def Con from 7.40659e-005 to 7.40659e-005
Heightened Def Con from 7.40659e-005 +to 7.4066e-005
Heightened Def Con from 7.4066e-005 ++to 7.4067e-005
Heightened Def Con from 7.4067e-005 ++to 7.4068e-005
Heightened Def Con from 7.4068e-005 +to 7.40682e-005
Heightened Def Con from 7.40682e-005 to 7.40682e-005
Heightened Def Con from 7.40682e-005 to 7.40682e-005
Heightened Def Con from 7.40682e-005 +to 7.40682e-005
Heightened Def Con from 7.40682e-005 to 7.40682e-005
Heightened Def Con from 7.40682e-005 +to 7.40682e-005
Heightened Def Con from 7.40682e-005 +to 7.40682e-005
Heightened Def Con from 7.40682e-005 +to 7.40682e-005
Heightened Def Con from 7.40682e-005 +to 7.40682e-005
Heightened Def Con from 7.40682e-005 +to 7.40683e-005
Heightened Def Con from 7.40683e-005 +to 7.40683e-005
Heightened Def Con from 7.40683e-005 +to 7.40683e-005
Heightened Def Con from 7.40683e-005 +to 7.40683e-005
Heightened Def Con from 7.40683e-005 to 7.40683e-005
Heightened Def Con from 7.40683e-005 ++to 7.40693e-005
Heightened Def Con from 7.40693e-005 to 7.40703e-005
Heightened Def Con from 7.40703e-005 ++to 7.40713e-005
Heightened Def Con from 7.40713e-005 ++to 7.40723e-005
Heightened Def Con from 7.40723e-005 ++to 7.40733e-005
Heightened Def Con from 7.40733e-005 +to 7.40733e-005
Heightened Def Con from 7.40733e-005 to 7.40733e-005
Heightened Def Con from 7.40733e-005 +to 7.40733e-005
Heightened Def Con from 7.40733e-005 +to 7.40733e-005
Heightened Def Con from 7.40733e-005 ++to 7.40743e-005
Heightened Def Con from 7.40743e-005 +to 7.40743e-005
Heightened Def Con from 7.40743e-005 +to 7.40743e-005
Heightened Def Con from 7.40743e-005 +to 7.40753e-005
Heightened Def Con from 7.40753e-005 ++to 7.40763e-005
Heightened Def Con from 7.40763e-005 +to 7.40763e-005
Heightened Def Con from 7.40763e-005 ++to 7.40773e-005
Heightened Def Con from 7.40773e-005 to 7.40773e-005
Heightened Def Con from 7.40773e-005 ++to 7.40783e-005
Heightened Def Con from 7.40783e-005 ++to 7.40793e-005
Heightened Def Con from 7.40793e-005 +to 7.40793e-005
Heightened Def Con from 7.40793e-005 to 7.40793e-005
Heightened Def Con from 7.40793e-005 ++to 7.40803e-005
Heightened Def Con from 7.40803e-005 +to 7.40803e-005
Heightened Def Con from 7.40803e-005 +to 7.40803e-005
Heightened Def Con from 7.40803e-005 to 7.40803e-005
Heightened Def Con from 7.40803e-005 ++to 7.40813e-005
Heightened Def Con from 7.40813e-005 ++to 7.40823e-005
Heightened Def Con from 7.40823e-005 +to 7.40823e-005
Heightened Def Con from 7.40823e-005 +to 7.40823e-005
Heightened Def Con from 7.40823e-005 +to 7.40825e-005
Heightened Def Con from 7.40825e-005 +to 7.40835e-005
Heightened Def Con from 7.40835e-005 to 7.40835e-005
Heightened Def Con from 7.40835e-005 +to 7.40835e-005
Heightened Def Con from 7.40835e-005 ++to 7.40845e-005
Heightened Def Con from 7.40845e-005 +to 7.40845e-005
Heightened Def Con from 7.40845e-005 to 7.40845e-005
Heightened Def Con from 7.40845e-005 ++to 7.40855e-005
Heightened Def Con from 7.40855e-005 +to 7.40855e-005
Heightened Def Con from 7.40855e-005 ++to 7.40865e-005
Heightened Def Con from 7.40865e-005 +to 7.40865e-005
Heightened Def Con from 7.40865e-005 +to 7.40875e-005
Heightened Def Con from 7.40875e-005 +to 7.40875e-005
Heightened Def Con from 7.40875e-005 +to 7.40875e-005
Heightened Def Con from 7.40875e-005 to 7.40875e-005
Heightened Def Con from 7.40875e-005 to 7.40875e-005
Heightened Def Con from 7.40875e-005 +to 7.40875e-005
Heightened Def Con from 7.40875e-005 to 7.40875e-005
Heightened Def Con from 7.40875e-005 to 7.40875e-005
Heightened Def Con from 7.40875e-005 ++to 7.40885e-005
Heightened Def Con from 7.40885e-005 ++to 7.40895e-005
Heightened Def Con from 7.40895e-005 +to 7.40896e-005
Heightened Def Con from 7.40896e-005 ++to 7.40906e-005
Heightened Def Con from 7.40906e-005 +to 7.40906e-005
Heightened Def Con from 7.40906e-005 +to 7.40906e-005
Heightened Def Con from 7.40906e-005 ++to 7.40916e-005
Heightened Def Con from 7.40916e-005 +to 7.40916e-005
Heightened Def Con from 7.40916e-005 ++to 7.40926e-005
Heightened Def Con from 7.40926e-005 +to 7.40926e-005
Heightened Def Con from 7.40926e-005 +to 7.40926e-005
Heightened Def Con from 7.40926e-005 to 7.40926e-005
Heightened Def Con from 7.40926e-005 +to 7.40926e-005
Heightened Def Con from 7.40926e-005 +to 7.40936e-005
Heightened Def Con from 7.40936e-005 ++to 7.40946e-005
Heightened Def Con from 7.40946e-005 +to 7.40956e-005
Heightened Def Con from 7.40956e-005 ++to 7.40966e-005
Heightened Def Con from 7.40966e-005 ++to 7.40976e-005
Heightened Def Con from 7.40976e-005 +to 7.40976e-005
Heightened Def Con from 7.40976e-005 ++to 7.40986e-005
Heightened Def Con from 7.40986e-005 to 7.40987e-005
Heightened Def Con from 7.40987e-005 ++to 7.40997e-005
Heightened Def Con from 7.40997e-005 ++to 7.41007e-005
Heightened Def Con from 7.41007e-005 to 7.41007e-005
Heightened Def Con from 7.41007e-005 +to 7.41008e-005
Heightened Def Con from 7.41008e-005 +to 7.41008e-005
Heightened Def Con from 7.41008e-005 ++to 7.41018e-005
Heightened Def Con from 7.41018e-005 +to 7.41018e-005
Heightened Def Con from 7.41018e-005 +to 7.41018e-005
Heightened Def Con from 7.41018e-005 +to 7.41018e-005
Heightened Def Con from 7.41018e-005 ++to 7.41028e-005
Heightened Def Con from 7.41028e-005 ++to 7.41029e-005
Heightened Def Con from 7.41029e-005 ++to 7.41039e-005
Heightened Def Con from 7.41039e-005 to 7.41041e-005
Heightened Def Con from 7.41041e-005 to 7.41041e-005
Heightened Def Con from 7.41041e-005 +to 7.41051e-005
Heightened Def Con from 7.41051e-005 ++to 7.41052e-005
Heightened Def Con from 7.41052e-005 ++to 7.41062e-005
Heightened Def Con from 7.41062e-005 ++to 7.41072e-005
Heightened Def Con from 7.41072e-005 +to 7.41082e-005
Heightened Def Con from 7.41082e-005 +to 7.41082e-005
Heightened Def Con from 7.41082e-005 +to 7.41082e-005
Heightened Def Con from 7.41082e-005 +to 7.41082e-005
Heightened Def Con from 7.41082e-005 ++to 7.41092e-005
Heightened Def Con from 7.41092e-005 ++to 7.41102e-005
Heightened Def Con from 7.41102e-005 ++to 7.41112e-005
Heightened Def Con from 7.41112e-005 +to 7.41112e-005
Heightened Def Con from 7.41112e-005 +to 7.41112e-005
Heightened Def Con from 7.41112e-005 to 7.41112e-005
Heightened Def Con from 7.41112e-005 +to 7.41112e-005
Heightened Def Con from 7.41112e-005 ++to 7.41112e-005
Heightened Def Con from 7.41112e-005 +to 7.41112e-005
Heightened Def Con from 7.41112e-005 to 7.41112e-005
Heightened Def Con from 7.41112e-005 +to 7.41112e-005
Heightened Def Con from 7.41112e-005 +to 7.41112e-005
Heightened Def Con from 7.41112e-005 ++to 7.41122e-005
Heightened Def Con from 7.41122e-005 +to 7.41122e-005
Heightened Def Con from 7.41122e-005 ++to 7.41132e-005
Heightened Def Con from 7.41132e-005 ++to 7.41142e-005
Heightened Def Con from 7.41142e-005 ++to 7.41152e-005
Heightened Def Con from 7.41152e-005 ++to 7.41162e-005
Heightened Def Con from 7.41162e-005 ++to 7.41172e-005
Heightened Def Con from 7.41172e-005 ++to 7.41182e-005
Heightened Def Con from 7.41182e-005 ++to 7.41192e-005
Heightened Def Con from 7.41192e-005 +to 7.41193e-005
Heightened Def Con from 7.41193e-005 to 7.41193e-005
Heightened Def Con from 7.41193e-005 to 7.41193e-005
Heightened Def Con from 7.41193e-005 ++to 7.41203e-005
Heightened Def Con from 7.41203e-005 +to 7.41204e-005
Heightened Def Con from 7.41204e-005 to 7.41204e-005
Heightened Def Con from 7.41204e-005 +to 7.41206e-005
Heightened Def Con from 7.41206e-005 to 7.41207e-005
Heightened Def Con from 7.41207e-005 +to 7.41217e-005
Heightened Def Con from 7.41217e-005 +to 7.41217e-005
Heightened Def Con from 7.41217e-005 +to 7.41217e-005
Heightened Def Con from 7.41217e-005 to 7.41227e-005
Heightened Def Con from 7.41227e-005 ++to 7.41237e-005
Heightened Def Con from 7.41237e-005 ++to 7.41247e-005
Heightened Def Con from 7.41247e-005 +to 7.41257e-005
Heightened Def Con from 7.41257e-005 +to 7.41258e-005
Heightened Def Con from 7.41258e-005 to 7.41258e-005
Heightened Def Con from 7.41258e-005 ++to 7.41268e-005
Heightened Def Con from 7.41268e-005 ++to 7.41278e-005
Heightened Def Con from 7.41278e-005 ++to 7.41288e-005
Heightened Def Con from 7.41288e-005 ++to 7.41298e-005
Heightened Def Con from 7.41298e-005 ++to 7.41308e-005
Heightened Def Con from 7.41308e-005 ++to 7.41318e-005
Heightened Def Con from 7.41318e-005 ++to 7.41328e-005
Heightened Def Con from 7.41328e-005 +to 7.41328e-005
Heightened Def Con from 7.41328e-005 ++to 7.41338e-005
Heightened Def Con from 7.41338e-005 ++to 7.41348e-005
Heightened Def Con from 7.41348e-005 to 7.41348e-005
Heightened Def Con from 7.41348e-005 to 7.41348e-005
Heightened Def Con from 7.41348e-005 +to 7.41348e-005
Heightened Def Con from 7.41348e-005 ++to 7.41358e-005
Heightened Def Con from 7.41358e-005 ++to 7.41368e-005
Heightened Def Con from 7.41368e-005 ++to 7.41378e-005
Heightened Def Con from 7.41378e-005 +to 7.41378e-005
Heightened Def Con from 7.41378e-005 +to 7.41378e-005
Heightened Def Con from 7.41378e-005 +to 7.4138e-005
Heightened Def Con from 7.4138e-005 +to 7.4138e-005
Heightened Def Con from 7.4138e-005 ++to 7.4139e-005
Heightened Def Con from 7.4139e-005 to 7.4139e-005
Heightened Def Con from 7.4139e-005 to 7.4139e-005
Heightened Def Con from 7.4139e-005 +to 7.4139e-005
Heightened Def Con from 7.4139e-005 +to 7.414e-005
Heightened Def Con from 7.414e-005 to 7.414e-005
Heightened Def Con from 7.414e-005 to 7.414e-005
Heightened Def Con from 7.414e-005 to 7.4141e-005
Heightened Def Con from 7.4141e-005 +to 7.4141e-005
Heightened Def Con from 7.4141e-005 +to 7.4141e-005
Heightened Def Con from 7.4141e-005 ++to 7.4142e-005
Heightened Def Con from 7.4142e-005 +to 7.4142e-005
Heightened Def Con from 7.4142e-005 +to 7.4142e-005
Heightened Def Con from 7.4142e-005 +to 7.4142e-005
Heightened Def Con from 7.4142e-005 +to 7.4142e-005
Heightened Def Con from 7.4142e-005 +to 7.4142e-005
Heightened Def Con from 7.4142e-005 +to 7.4142e-005
Heightened Def Con from 7.4142e-005 to 7.4142e-005
Heightened Def Con from 7.4142e-005 to 7.4142e-005
Heightened Def Con from 7.4142e-005 +to 7.4143e-005
Heightened Def Con from 7.4143e-005 to 7.4143e-005
Heightened Def Con from 7.4143e-005 to 7.4144e-005
Heightened Def Con from 7.4144e-005 +to 7.4144e-005
Heightened Def Con from 7.4144e-005 +to 7.4144e-005
Heightened Def Con from 7.4144e-005 to 7.41441e-005
Heightened Def Con from 7.41441e-005 to 7.41441e-005
Heightened Def Con from 7.41441e-005 ++to 7.41451e-005
Heightened Def Con from 7.41451e-005 +to 7.41451e-005
Heightened Def Con from 7.41451e-005 to 7.41451e-005
Heightened Def Con from 7.41451e-005 ++to 7.41461e-005
Heightened Def Con from 7.41461e-005 to 7.41471e-005
Heightened Def Con from 7.41471e-005 ++to 7.41481e-005
Heightened Def Con from 7.41481e-005 +to 7.41481e-005
Heightened Def Con from 7.41481e-005 ++to 7.41491e-005
Heightened Def Con from 7.41491e-005 to 7.41501e-005
Heightened Def Con from 7.41501e-005 +to 7.41501e-005
Heightened Def Con from 7.41501e-005 to 7.41501e-005
Heightened Def Con from 7.41501e-005 +to 7.41503e-005
Heightened Def Con from 7.41503e-005 +to 7.41503e-005
Heightened Def Con from 7.41503e-005 to 7.41503e-005
Heightened Def Con from 7.41503e-005 to 7.41503e-005
Heightened Def Con from 7.41503e-005 +to 7.41503e-005
Heightened Def Con from 7.41503e-005 +to 7.41503e-005
Heightened Def Con from 7.41503e-005 +to 7.41503e-005
Heightened Def Con from 7.41503e-005 to 7.41503e-005
Heightened Def Con from 7.41503e-005 +to 7.41503e-005
Heightened Def Con from 7.41503e-005 +to 7.41503e-005
Heightened Def Con from 7.41503e-005 ++to 7.41513e-005
Heightened Def Con from 7.41513e-005 to 7.41513e-005
Heightened Def Con from 7.41513e-005 to 7.41514e-005
Heightened Def Con from 7.41514e-005 to 7.41524e-005
Heightened Def Con from 7.41524e-005 ++to 7.41534e-005
Heightened Def Con from 7.41534e-005 +to 7.41534e-005
Heightened Def Con from 7.41534e-005 ++to 7.41544e-005
Heightened Def Con from 7.41544e-005 to 7.41544e-005
Heightened Def Con from 7.41544e-005 +to 7.41544e-005
Heightened Def Con from 7.41544e-005 to 7.41544e-005
Heightened Def Con from 7.41544e-005 to 7.41544e-005
Heightened Def Con from 7.41544e-005 to 7.41544e-005
Heightened Def Con from 7.41544e-005 +to 7.41544e-005
Heightened Def Con from 7.41544e-005 +to 7.41544e-005
Heightened Def Con from 7.41544e-005 to 7.41544e-005
Heightened Def Con from 7.41544e-005 ++to 7.41554e-005
Heightened Def Con from 7.41554e-005 +to 7.41554e-005
Heightened Def Con from 7.41554e-005 +to 7.41554e-005
Heightened Def Con from 7.41554e-005 +to 7.41554e-005
Heightened Def Con from 7.41554e-005 to 7.41554e-005
Heightened Def Con from 7.41554e-005 +to 7.41564e-005
Heightened Def Con from 7.41564e-005 +to 7.41565e-005
Heightened Def Con from 7.41565e-005 to 7.41565e-005
Heightened Def Con from 7.41565e-005 ++to 7.41575e-005
Heightened Def Con from 7.41575e-005 ++to 7.41585e-005
Heightened Def Con from 7.41585e-005 +to 7.41585e-005
Heightened Def Con from 7.41585e-005 to 7.41585e-005
Heightened Def Con from 7.41585e-005 +to 7.41585e-005
Heightened Def Con from 7.41585e-005 to 7.41585e-005
Heightened Def Con from 7.41585e-005 +to 7.41595e-005
Heightened Def Con from 7.41595e-005 +to 7.41595e-005
Heightened Def Con from 7.41595e-005 ++to 7.41605e-005
Heightened Def Con from 7.41605e-005 +to 7.41615e-005
Heightened Def Con from 7.41615e-005 ++to 7.41625e-005
Heightened Def Con from 7.41625e-005 ++to 7.41635e-005
Heightened Def Con from 7.41635e-005 ++to 7.41645e-005
Heightened Def Con from 7.41645e-005 ++to 7.41655e-005
Heightened Def Con from 7.41655e-005 +to 7.41665e-005
Heightened Def Con from 7.41665e-005 +to 7.41665e-005
Heightened Def Con from 7.41665e-005 +to 7.41665e-005
Heightened Def Con from 7.41665e-005 +to 7.41667e-005
Heightened Def Con from 7.41667e-005 +to 7.41667e-005
Heightened Def Con from 7.41667e-005 +to 7.41667e-005
Heightened Def Con from 7.41667e-005 +to 7.41668e-005
Heightened Def Con from 7.41668e-005 +to 7.41668e-005
Heightened Def Con from 7.41668e-005 ++to 7.41678e-005
Heightened Def Con from 7.4168e-005 +to 7.41682e-005
Heightened Def Con from 7.41682e-005 ++to 7.41692e-005
Heightened Def Con from 7.41692e-005 to 7.41692e-005
Heightened Def Con from 7.41692e-005 +to 7.41692e-005
Heightened Def Con from 7.41692e-005 to 7.41692e-005
Heightened Def Con from 7.41692e-005 +to 7.41693e-005
Heightened Def Con from 7.41693e-005 +to 7.41703e-005
Heightened Def Con from 7.41703e-005 +to 7.41703e-005
Heightened Def Con from 7.41703e-005 ++to 7.41713e-005
Heightened Def Con from 7.41713e-005 +to 7.41713e-005
Heightened Def Con from 7.41713e-005 to 7.41713e-005
Heightened Def Con from 7.41713e-005 +to 7.41714e-005
Heightened Def Con from 7.41714e-005 +to 7.41715e-005
Heightened Def Con from 7.41715e-005 to 7.41715e-005
Heightened Def Con from 7.41715e-005 +to 7.41725e-005
Heightened Def Con from 7.41725e-005 +to 7.41725e-005
Heightened Def Con from 7.41725e-005 ++to 7.41735e-005
Heightened Def Con from 7.41735e-005 to 7.41735e-005
Heightened Def Con from 7.41735e-005 ++to 7.41745e-005
Heightened Def Con from 7.41745e-005 to 7.41745e-005
Heightened Def Con from 7.41745e-005 ++to 7.41755e-005
Heightened Def Con from 7.41755e-005 +to 7.41755e-005
Heightened Def Con from 7.41755e-005 +to 7.41755e-005
Heightened Def Con from 7.41755e-005 +to 7.41765e-005
Heightened Def Con from 7.41765e-005 +to 7.41775e-005
Heightened Def Con from 7.41775e-005 to 7.41775e-005
Heightened Def Con from 7.41775e-005 +to 7.41775e-005
Heightened Def Con from 7.41775e-005 +to 7.41775e-005
Heightened Def Con from 7.41775e-005 to 7.41775e-005
Heightened Def Con from 7.41775e-005 ++to 7.41785e-005
Heightened Def Con from 7.41785e-005 to 7.41795e-005
Heightened Def Con from 7.41795e-005 +to 7.41795e-005
Heightened Def Con from 7.41795e-005 ++to 7.41805e-005
Heightened Def Con from 7.41805e-005 +to 7.41806e-005
Heightened Def Con from 7.41806e-005 +to 7.41806e-005
Heightened Def Con from 7.41806e-005 +to 7.41806e-005
Heightened Def Con from 7.41806e-005 +to 7.41806e-005
Heightened Def Con from 7.41806e-005 +to 7.41806e-005
Heightened Def Con from 7.41806e-005 ++to 7.41816e-005
Heightened Def Con from 7.41816e-005 +to 7.41826e-005
Heightened Def Con from 7.41826e-005 to 7.41826e-005
Heightened Def Con from 7.41826e-005 +to 7.41836e-005
Heightened Def Con from 7.41836e-005 +to 7.41836e-005
Heightened Def Con from 7.41836e-005 +to 7.41836e-005
Heightened Def Con from 7.41836e-005 +to 7.41846e-005
Heightened Def Con from 7.41846e-005 +to 7.41847e-005
Heightened Def Con from 7.41847e-005 +to 7.41847e-005
Heightened Def Con from 7.41847e-005 to 7.41847e-005
Heightened Def Con from 7.41847e-005 +to 7.41847e-005
Heightened Def Con from 7.41847e-005 to 7.41857e-005
Heightened Def Con from 7.41857e-005 +to 7.41857e-005
Heightened Def Con from 7.41857e-005 to 7.41867e-005
Heightened Def Con from 7.41867e-005 +to 7.41868e-005
Heightened Def Con from 7.41868e-005 +to 7.41868e-005
Heightened Def Con from 7.41868e-005 +to 7.41868e-005
Heightened Def Con from 7.41868e-005 +to 7.41868e-005
Heightened Def Con from 7.41868e-005 to 7.41868e-005
Heightened Def Con from 7.41868e-005 +to 7.41878e-005
Heightened Def Con from 7.41878e-005 to 7.41888e-005
Heightened Def Con from 7.41888e-005 +to 7.41889e-005
Heightened Def Con from 7.41889e-005 +to 7.41899e-005
Heightened Def Con from 7.41899e-005 +to 7.419e-005
Heightened Def Con from 7.419e-005 to 7.419e-005
Heightened Def Con from 7.419e-005 to 7.419e-005
Heightened Def Con from 7.419e-005 +to 7.419e-005
Heightened Def Con from 7.419e-005 ++to 7.4191e-005
Heightened Def Con from 7.4191e-005 +to 7.41912e-005
Heightened Def Con from 7.41912e-005 +to 7.41913e-005
Heightened Def Con from 7.41913e-005 ++to 7.41923e-005
Heightened Def Con from 7.41923e-005 +to 7.41923e-005
Heightened Def Con from 7.41923e-005 +to 7.41923e-005
Heightened Def Con from 7.41923e-005 +to 7.41933e-005
Heightened Def Con from 7.41933e-005 +to 7.41933e-005
Heightened Def Con from 7.41933e-005 +to 7.41933e-005
Heightened Def Con from 7.41933e-005 to 7.41933e-005
Heightened Def Con from 7.41933e-005 +to 7.41933e-005
Heightened Def Con from 7.41933e-005 +to 7.41934e-005
Heightened Def Con from 7.41934e-005 +to 7.41944e-005
Heightened Def Con from 7.41944e-005 +to 7.41945e-005
Heightened Def Con from 7.41945e-005 +to 7.41955e-005
Heightened Def Con from 7.41955e-005 ++to 7.41965e-005
Heightened Def Con from 7.41965e-005 ++to 7.41975e-005
Heightened Def Con from 7.41975e-005 to 7.41975e-005
Heightened Def Con from 7.41975e-005 +to 7.41985e-005
Heightened Def Con from 7.41985e-005 to 7.41985e-005
Heightened Def Con from 7.41985e-005 +to 7.41985e-005
Heightened Def Con from 7.41985e-005 +to 7.41995e-005
Heightened Def Con from 7.41995e-005 +to 7.41995e-005
Heightened Def Con from 7.41995e-005 +to 7.41995e-005
Heightened Def Con from 7.41995e-005 +to 7.42005e-005
Heightened Def Con from 7.42005e-005 ++to 7.42015e-005
Heightened Def Con from 7.42015e-005 ++to 7.42025e-005
Heightened Def Con from 7.42025e-005 +to 7.42025e-005
Heightened Def Con from 7.42025e-005 to 7.42035e-005
Heightened Def Con from 7.42035e-005 +to 7.42035e-005
Heightened Def Con from 7.42035e-005 to 7.42035e-005
Heightened Def Con from 7.42035e-005 +to 7.42035e-005
Heightened Def Con from 7.42035e-005 ++to 7.42045e-005
Heightened Def Con from 7.42045e-005 ++to 7.42055e-005
Heightened Def Con from 7.42055e-005 +to 7.42055e-005
Heightened Def Con from 7.42055e-005 +to 7.42056e-005
Heightened Def Con from 7.42056e-005 to 7.42056e-005
Heightened Def Con from 7.42056e-005 +to 7.42057e-005
Heightened Def Con from 7.42057e-005 +to 7.42057e-005
Heightened Def Con from 7.42057e-005 +to 7.42067e-005
Heightened Def Con from 7.42067e-005 +to 7.42067e-005
Heightened Def Con from 7.42067e-005 +to 7.42068e-005
Heightened Def Con from 7.42068e-005 +to 7.42068e-005
Heightened Def Con from 7.42068e-005 +to 7.42068e-005
Heightened Def Con from 7.42068e-005 +to 7.42068e-005
Heightened Def Con from 7.42068e-005 to 7.42068e-005
Heightened Def Con from 7.42068e-005 +to 7.42069e-005
Heightened Def Con from 7.42069e-005 +to 7.42069e-005
Heightened Def Con from 7.42069e-005 +to 7.42069e-005
Heightened Def Con from 7.42069e-005 +to 7.42069e-005
Heightened Def Con from 7.42069e-005 +to 7.42069e-005
Heightened Def Con from 7.42069e-005 to 7.42069e-005
Heightened Def Con from 7.42069e-005 to 7.42069e-005
Heightened Def Con from 7.42069e-005 +to 7.42069e-005
Heightened Def Con from 7.42069e-005 +to 7.42069e-005
Heightened Def Con from 7.42069e-005 to 7.42069e-005
Heightened Def Con from 7.42069e-005 +to 7.42079e-005
Heightened Def Con from 7.42079e-005 to 7.42079e-005
Heightened Def Con from 7.42079e-005 +to 7.42079e-005
Heightened Def Con from 7.42079e-005 +to 7.42089e-005
Heightened Def Con from 7.42089e-005 ++to 7.42099e-005
Heightened Def Con from 7.42099e-005 to 7.42099e-005
Heightened Def Con from 7.42099e-005 ++to 7.42109e-005
Heightened Def Con from 7.42109e-005 +to 7.42119e-005
Heightened Def Con from 7.42119e-005 +to 7.42119e-005

Date: Sat Jun 03 00:40:08 2023
Total elapsed time: 5.687 seconds.

tnom = 27
temp = 27
method = Gear
totiter = 185619
traniter = 185571
tranpoints = 28379
accept = 13729
rejected = 15860
matrix size = 37
fillins = 2
solver = Normal
Thread vector: 24.2/8.1[4] 12.7/5.0[4] 3.6/3.7[1] 0.4/4.1[1]  2592/500
Matrix Compiler1: 3.38 KB object code size  1.9/0.9/[0.5]
Matrix Compiler2: 4.04 KB object code size  0.9/1.4/[0.6]

