Circuit: * D:\ltspice\Draft6.asc

WARNING: Node N002 is floating.
WARNING: Node N006 is floating.
WARNING: Node N007 is floating.

WARNING: Less than two connections to node VDD.  This node is used by V4.
WARNING: Less than two connections to node N006.  This node is used by A1.
WARNING: Less than two connections to node N007.  This node is used by A2.
WARNING: Less than two connections to node OUT1.  This node is used by A2.
WARNING: Less than two connections to node U2.  This node is used by A3.
Instance "m:x2:x12:2": Length shorter than recommended for a level 1 MOSFET.
Instance "m:x2:x12:2": Width narrower than recommended for a level 1 MOSFET.
Instance "m:x2:x11:2": Length shorter than recommended for a level 1 MOSFET.
Instance "m:x2:x11:2": Width narrower than recommended for a level 1 MOSFET.
Instance "m:x2:x10:2": Length shorter than recommended for a level 1 MOSFET.
Instance "m:x2:x10:2": Width narrower than recommended for a level 1 MOSFET.
Instance "m:x2:x9:2": Length shorter than recommended for a level 1 MOSFET.
Instance "m:x2:x9:2": Width narrower than recommended for a level 1 MOSFET.
Instance "m:x2:x8:4": Length shorter than recommended for a level 1 MOSFET.
Instance "m:x2:x8:4": Width narrower than recommended for a level 1 MOSFET.
Instance "m:x2:x8:3": Length shorter than recommended for a level 1 MOSFET.
Instance "m:x2:x8:3": Width narrower than recommended for a level 1 MOSFET.
Instance "m:x2:x3:4": Length shorter than recommended for a level 1 MOSFET.
Instance "m:x2:x3:4": Width narrower than recommended for a level 1 MOSFET.
Instance "m:x2:x3:3": Length shorter than recommended for a level 1 MOSFET.
Instance "m:x2:x3:3": Width narrower than recommended for a level 1 MOSFET.
Instance "m:x2:17": Length shorter than recommended for a level 1 MOSFET.
Instance "m:x2:17": Width narrower than recommended for a level 1 MOSFET.
Instance "m:x2:15": Length shorter than recommended for a level 1 MOSFET.
Instance "m:x2:15": Width narrower than recommended for a level 1 MOSFET.
Instance "m:x2:13": Length shorter than recommended for a level 1 MOSFET.
Instance "m:x2:13": Width narrower than recommended for a level 1 MOSFET.
Instance "m:x2:11": Length shorter than recommended for a level 1 MOSFET.
Instance "m:x2:11": Width narrower than recommended for a level 1 MOSFET.
Instance "m:x2:x1:2": Length shorter than recommended for a level 1 MOSFET.
Instance "m:x2:x1:2": Width narrower than recommended for a level 1 MOSFET.
Instance "m:x1:x12:2": Length shorter than recommended for a level 1 MOSFET.
Instance "m:x1:x12:2": Width narrower than recommended for a level 1 MOSFET.
Instance "m:x1:x11:2": Length shorter than recommended for a level 1 MOSFET.
Instance "m:x1:x11:2": Width narrower than recommended for a level 1 MOSFET.
Instance "m:x1:x10:2": Length shorter than recommended for a level 1 MOSFET.
Instance "m:x1:x10:2": Width narrower than recommended for a level 1 MOSFET.
Instance "m:x1:x9:2": Length shorter than recommended for a level 1 MOSFET.
Instance "m:x1:x9:2": Width narrower than recommended for a level 1 MOSFET.
Instance "m:x1:x8:4": Length shorter than recommended for a level 1 MOSFET.
Instance "m:x1:x8:4": Width narrower than recommended for a level 1 MOSFET.
Instance "m:x1:x8:3": Length shorter than recommended for a level 1 MOSFET.
Instance "m:x1:x8:3": Width narrower than recommended for a level 1 MOSFET.
Instance "m:x1:x3:4": Length shorter than recommended for a level 1 MOSFET.
Instance "m:x1:x3:4": Width narrower than recommended for a level 1 MOSFET.
Instance "m:x1:x3:3": Length shorter than recommended for a level 1 MOSFET.
Instance "m:x1:x3:3": Width narrower than recommended for a level 1 MOSFET.
Instance "m:x1:17": Length shorter than recommended for a level 1 MOSFET.
Instance "m:x1:17": Width narrower than recommended for a level 1 MOSFET.
Instance "m:x1:15": Length shorter than recommended for a level 1 MOSFET.
Instance "m:x1:15": Width narrower than recommended for a level 1 MOSFET.
Instance "m:x1:13": Length shorter than recommended for a level 1 MOSFET.
Instance "m:x1:13": Width narrower than recommended for a level 1 MOSFET.
Instance "m:x1:11": Length shorter than recommended for a level 1 MOSFET.
Instance "m:x1:11": Width narrower than recommended for a level 1 MOSFET.
Instance "m:x1:x1:2": Length shorter than recommended for a level 1 MOSFET.
Instance "m:x1:x1:2": Width narrower than recommended for a level 1 MOSFET.
Instance "m:x2:x12:1": Length shorter than recommended for a level 1 MOSFET.
Instance "m:x2:x12:1": Width narrower than recommended for a level 1 MOSFET.
Instance "m:x2:x11:1": Length shorter than recommended for a level 1 MOSFET.
Instance "m:x2:x11:1": Width narrower than recommended for a level 1 MOSFET.
Instance "m:x2:x10:1": Length shorter than recommended for a level 1 MOSFET.
Instance "m:x2:x10:1": Width narrower than recommended for a level 1 MOSFET.
Instance "m:x2:x9:1": Length shorter than recommended for a level 1 MOSFET.
Instance "m:x2:x9:1": Width narrower than recommended for a level 1 MOSFET.
Instance "m:x2:x8:2": Length shorter than recommended for a level 1 MOSFET.
Instance "m:x2:x8:2": Width narrower than recommended for a level 1 MOSFET.
Instance "m:x2:x8:1": Length shorter than recommended for a level 1 MOSFET.
Instance "m:x2:x8:1": Width narrower than recommended for a level 1 MOSFET.
Instance "m:x2:x3:2": Length shorter than recommended for a level 1 MOSFET.
Instance "m:x2:x3:2": Width narrower than recommended for a level 1 MOSFET.
Instance "m:x2:x3:1": Length shorter than recommended for a level 1 MOSFET.
Instance "m:x2:x3:1": Width narrower than recommended for a level 1 MOSFET.
Instance "m:x2:18": Length shorter than recommended for a level 1 MOSFET.
Instance "m:x2:18": Width narrower than recommended for a level 1 MOSFET.
Instance "m:x2:16": Length shorter than recommended for a level 1 MOSFET.
Instance "m:x2:16": Width narrower than recommended for a level 1 MOSFET.
Instance "m:x2:14": Length shorter than recommended for a level 1 MOSFET.
Instance "m:x2:14": Width narrower than recommended for a level 1 MOSFET.
Instance "m:x2:12": Length shorter than recommended for a level 1 MOSFET.
Instance "m:x2:12": Width narrower than recommended for a level 1 MOSFET.
Instance "m:x2:x1:1": Length shorter than recommended for a level 1 MOSFET.
Instance "m:x2:x1:1": Width narrower than recommended for a level 1 MOSFET.
Instance "m:x1:x12:1": Length shorter than recommended for a level 1 MOSFET.
Instance "m:x1:x12:1": Width narrower than recommended for a level 1 MOSFET.
Instance "m:x1:x11:1": Length shorter than recommended for a level 1 MOSFET.
Instance "m:x1:x11:1": Width narrower than recommended for a level 1 MOSFET.
Instance "m:x1:x10:1": Length shorter than recommended for a level 1 MOSFET.
Instance "m:x1:x10:1": Width narrower than recommended for a level 1 MOSFET.
Instance "m:x1:x9:1": Length shorter than recommended for a level 1 MOSFET.
Instance "m:x1:x9:1": Width narrower than recommended for a level 1 MOSFET.
Instance "m:x1:x8:2": Length shorter than recommended for a level 1 MOSFET.
Instance "m:x1:x8:2": Width narrower than recommended for a level 1 MOSFET.
Instance "m:x1:x8:1": Length shorter than recommended for a level 1 MOSFET.
Instance "m:x1:x8:1": Width narrower than recommended for a level 1 MOSFET.
Instance "m:x1:x3:2": Length shorter than recommended for a level 1 MOSFET.
Instance "m:x1:x3:2": Width narrower than recommended for a level 1 MOSFET.
Instance "m:x1:x3:1": Length shorter than recommended for a level 1 MOSFET.
Instance "m:x1:x3:1": Width narrower than recommended for a level 1 MOSFET.
Instance "m:x1:18": Length shorter than recommended for a level 1 MOSFET.
Instance "m:x1:18": Width narrower than recommended for a level 1 MOSFET.
Instance "m:x1:16": Length shorter than recommended for a level 1 MOSFET.
Instance "m:x1:16": Width narrower than recommended for a level 1 MOSFET.
Instance "m:x1:14": Length shorter than recommended for a level 1 MOSFET.
Instance "m:x1:14": Width narrower than recommended for a level 1 MOSFET.
Instance "m:x1:12": Length shorter than recommended for a level 1 MOSFET.
Instance "m:x1:12": Width narrower than recommended for a level 1 MOSFET.
Instance "m:x1:x1:1": Length shorter than recommended for a level 1 MOSFET.
Instance "m:x1:x1:1": Width narrower than recommended for a level 1 MOSFET.
Direct Newton iteration for .op point succeeded.
Heightened Def Con from 2e-006 to 2e-006

Date: Fri Jun 09 23:11:50 2023
Total elapsed time: 0.622 seconds.

tnom = 27
temp = 27
method = modified trap
totiter = 8471
traniter = 8433
tranpoints = 3651
accept = 3224
rejected = 428
matrix size = 44
fillins = 6
solver = Normal
Thread vector: 31.2/21.9[2] 10.1/8.5[2] 2.1/3.5[1] 0.5/1.4[1]  2592/500
Matrix Compiler1: 5.14 KB object code size  1.8/1.0/[0.5]
Matrix Compiler2: 4.67 KB object code size  0.7/0.8/[0.5]

