Circuit: * D:\ltspice\Draft2.asc

WARNING: Less than two connections to node Q1.  This node is used by A1.
Instance "m:x2:1": Length shorter than recommended for a level 1 MOSFET.
Instance "m:x2:1": Width narrower than recommended for a level 1 MOSFET.
Instance "m:x1:x5:2": Length shorter than recommended for a level 1 MOSFET.
Instance "m:x1:x5:2": Width narrower than recommended for a level 1 MOSFET.
Instance "m:x1:x5:1": Length shorter than recommended for a level 1 MOSFET.
Instance "m:x1:x5:1": Width narrower than recommended for a level 1 MOSFET.
Instance "m:x1:x4:2": Length shorter than recommended for a level 1 MOSFET.
Instance "m:x1:x4:2": Width narrower than recommended for a level 1 MOSFET.
Instance "m:x1:x4:1": Length shorter than recommended for a level 1 MOSFET.
Instance "m:x1:x4:1": Width narrower than recommended for a level 1 MOSFET.
Instance "m:x1:x6:1": Length shorter than recommended for a level 1 MOSFET.
Instance "m:x1:x6:1": Width narrower than recommended for a level 1 MOSFET.
Instance "m:x1:x3:1": Length shorter than recommended for a level 1 MOSFET.
Instance "m:x1:x3:1": Width narrower than recommended for a level 1 MOSFET.
Instance "m:x1:x7:2": Length shorter than recommended for a level 1 MOSFET.
Instance "m:x1:x7:2": Width narrower than recommended for a level 1 MOSFET.
Instance "m:x1:x7:1": Length shorter than recommended for a level 1 MOSFET.
Instance "m:x1:x7:1": Width narrower than recommended for a level 1 MOSFET.
Instance "m:x1:x1:2": Length shorter than recommended for a level 1 MOSFET.
Instance "m:x1:x1:2": Width narrower than recommended for a level 1 MOSFET.
Instance "m:x1:x1:1": Length shorter than recommended for a level 1 MOSFET.
Instance "m:x1:x1:1": Width narrower than recommended for a level 1 MOSFET.
Instance "m:x1:8": Length shorter than recommended for a level 1 MOSFET.
Instance "m:x1:8": Width narrower than recommended for a level 1 MOSFET.
Instance "m:x1:6": Length shorter than recommended for a level 1 MOSFET.
Instance "m:x1:6": Width narrower than recommended for a level 1 MOSFET.
Instance "m:x1:4": Length shorter than recommended for a level 1 MOSFET.
Instance "m:x1:4": Width narrower than recommended for a level 1 MOSFET.
Instance "m:x1:x2:1": Length shorter than recommended for a level 1 MOSFET.
Instance "m:x1:x2:1": Width narrower than recommended for a level 1 MOSFET.
Instance "m:x1:2": Length shorter than recommended for a level 1 MOSFET.
Instance "m:x1:2": Width narrower than recommended for a level 1 MOSFET.
Instance "m:x2:2": Length shorter than recommended for a level 1 MOSFET.
Instance "m:x2:2": Width narrower than recommended for a level 1 MOSFET.
Instance "m:x1:x5:4": Length shorter than recommended for a level 1 MOSFET.
Instance "m:x1:x5:4": Width narrower than recommended for a level 1 MOSFET.
Instance "m:x1:x5:3": Length shorter than recommended for a level 1 MOSFET.
Instance "m:x1:x5:3": Width narrower than recommended for a level 1 MOSFET.
Instance "m:x1:x4:4": Length shorter than recommended for a level 1 MOSFET.
Instance "m:x1:x4:4": Width narrower than recommended for a level 1 MOSFET.
Instance "m:x1:x4:3": Length shorter than recommended for a level 1 MOSFET.
Instance "m:x1:x4:3": Width narrower than recommended for a level 1 MOSFET.
Instance "m:x1:x6:2": Length shorter than recommended for a level 1 MOSFET.
Instance "m:x1:x6:2": Width narrower than recommended for a level 1 MOSFET.
Instance "m:x1:x3:2": Length shorter than recommended for a level 1 MOSFET.
Instance "m:x1:x3:2": Width narrower than recommended for a level 1 MOSFET.
Instance "m:x1:x7:4": Length shorter than recommended for a level 1 MOSFET.
Instance "m:x1:x7:4": Width narrower than recommended for a level 1 MOSFET.
Instance "m:x1:x7:3": Length shorter than recommended for a level 1 MOSFET.
Instance "m:x1:x7:3": Width narrower than recommended for a level 1 MOSFET.
Instance "m:x1:x1:4": Length shorter than recommended for a level 1 MOSFET.
Instance "m:x1:x1:4": Width narrower than recommended for a level 1 MOSFET.
Instance "m:x1:x1:3": Length shorter than recommended for a level 1 MOSFET.
Instance "m:x1:x1:3": Width narrower than recommended for a level 1 MOSFET.
Instance "m:x1:7": Length shorter than recommended for a level 1 MOSFET.
Instance "m:x1:7": Width narrower than recommended for a level 1 MOSFET.
Instance "m:x1:5": Length shorter than recommended for a level 1 MOSFET.
Instance "m:x1:5": Width narrower than recommended for a level 1 MOSFET.
Instance "m:x1:3": Length shorter than recommended for a level 1 MOSFET.
Instance "m:x1:3": Width narrower than recommended for a level 1 MOSFET.
Instance "m:x1:x2:2": Length shorter than recommended for a level 1 MOSFET.
Instance "m:x1:x2:2": Width narrower than recommended for a level 1 MOSFET.
Instance "m:x1:1": Length shorter than recommended for a level 1 MOSFET.
Instance "m:x1:1": Width narrower than recommended for a level 1 MOSFET.
Direct Newton iteration for .op point succeeded.
Heightened Def Con from 1e-006 ++++++++++++++to 1e-006
Heightened Def Con from 1.3e-006 ++++to 1.3e-006
Heightened Def Con from 1.3e-006 +++++to 1.3e-006
Heightened Def Con from 1.3e-006 ++++++to 1.3e-006
Heightened Def Con from 1.3e-006 +++++++to 1.3e-006
Heightened Def Con from 1.3e-006 to 1.3e-006
Heightened Def Con from 1.8e-006 ++++++++++++++++to 1.8e-006
Heightened Def Con from 2.8e-006 ++++++++++++++++++++to 2.8e-006
Heightened Def Con from 3.3e-006 +++++++++++++++to 3.3e-006
Heightened Def Con from 4.3e-006 ++++++++++++++++++to 4.3e-006
Heightened Def Con from 5.3e-006 ++++to 5.3e-006
Heightened Def Con from 5.3e-006 +++++to 5.3e-006
Heightened Def Con from 5.3e-006 ++++++to 5.3e-006
Heightened Def Con from 5.3e-006 ++to 5.3e-006
Heightened Def Con from 5.3e-006 to 5.3e-006
Heightened Def Con from 5.8e-006 ++++++++++++++++to 5.8e-006
Heightened Def Con from 6.3e-006 ++++++++++++++++++to 6.3e-006
Heightened Def Con from 7e-006 +++++++++++to 7e-006
Heightened Def Con from 8.3e-006 ++++++++++++++++++to 8.3e-006
Heightened Def Con from 9.3e-006 ++++to 9.3e-006
Heightened Def Con from 9.3e-006 +++++to 9.3e-006
Heightened Def Con from 9.3e-006 ++++++to 9.3e-006
Heightened Def Con from 9.3e-006 +++++++to 9.3e-006
Heightened Def Con from 9.3e-006 to 9.3e-006
Heightened Def Con from 9.8e-006 ++++++++++++++++to 9.8e-006

Date: Sat Apr 08 11:33:32 2023
Total elapsed time: 1.025 seconds.

tnom = 27
temp = 27
method = modified trap
totiter = 36062
traniter = 36023
tranpoints = 6333
accept = 3992
rejected = 2589
matrix size = 27
fillins = 8
solver = Normal
Thread vector: 17.5/8.5[3] 7.8/4.1[3] 2.3/3.1[1] 0.3/1.5[1]  2592/500
Matrix Compiler1: 2.98 KB object code size  1.2/0.7/[0.5]
Matrix Compiler2: 3.13 KB object code size  0.5/0.9/[0.4]

