Circuit: * D:\ltspice\Draft4.asc

Instance "m9": Length shorter than recommended for a level 1 MOSFET.
Instance "m9": Width narrower than recommended for a level 1 MOSFET.
Instance "m:x6:3": Length shorter than recommended for a level 1 MOSFET.
Instance "m:x6:3": Width narrower than recommended for a level 1 MOSFET.
Instance "m:x6:1": Length shorter than recommended for a level 1 MOSFET.
Instance "m:x6:1": Width narrower than recommended for a level 1 MOSFET.
Instance "m:x5:3": Length shorter than recommended for a level 1 MOSFET.
Instance "m:x5:3": Width narrower than recommended for a level 1 MOSFET.
Instance "m:x5:1": Length shorter than recommended for a level 1 MOSFET.
Instance "m:x5:1": Width narrower than recommended for a level 1 MOSFET.
Instance "m:x4:1": Length shorter than recommended for a level 1 MOSFET.
Instance "m:x4:1": Width narrower than recommended for a level 1 MOSFET.
Instance "m:x3:1": Length shorter than recommended for a level 1 MOSFET.
Instance "m:x3:1": Width narrower than recommended for a level 1 MOSFET.
Instance "m:x2:1": Length shorter than recommended for a level 1 MOSFET.
Instance "m:x2:1": Width narrower than recommended for a level 1 MOSFET.
Instance "m8": Length shorter than recommended for a level 1 MOSFET.
Instance "m8": Width narrower than recommended for a level 1 MOSFET.
Instance "m6": Length shorter than recommended for a level 1 MOSFET.
Instance "m6": Width narrower than recommended for a level 1 MOSFET.
Instance "m4": Length shorter than recommended for a level 1 MOSFET.
Instance "m4": Width narrower than recommended for a level 1 MOSFET.
Instance "m:x1:1": Length shorter than recommended for a level 1 MOSFET.
Instance "m:x1:1": Width narrower than recommended for a level 1 MOSFET.
Instance "m2": Length shorter than recommended for a level 1 MOSFET.
Instance "m2": Width narrower than recommended for a level 1 MOSFET.
Instance "m10": Length shorter than recommended for a level 1 MOSFET.
Instance "m10": Width narrower than recommended for a level 1 MOSFET.
Instance "m:x6:4": Length shorter than recommended for a level 1 MOSFET.
Instance "m:x6:4": Width narrower than recommended for a level 1 MOSFET.
Instance "m:x6:2": Length shorter than recommended for a level 1 MOSFET.
Instance "m:x6:2": Width narrower than recommended for a level 1 MOSFET.
Instance "m:x5:4": Length shorter than recommended for a level 1 MOSFET.
Instance "m:x5:4": Width narrower than recommended for a level 1 MOSFET.
Instance "m:x5:2": Length shorter than recommended for a level 1 MOSFET.
Instance "m:x5:2": Width narrower than recommended for a level 1 MOSFET.
Instance "m:x4:2": Length shorter than recommended for a level 1 MOSFET.
Instance "m:x4:2": Width narrower than recommended for a level 1 MOSFET.
Instance "m:x3:2": Length shorter than recommended for a level 1 MOSFET.
Instance "m:x3:2": Width narrower than recommended for a level 1 MOSFET.
Instance "m:x2:2": Length shorter than recommended for a level 1 MOSFET.
Instance "m:x2:2": Width narrower than recommended for a level 1 MOSFET.
Instance "m7": Length shorter than recommended for a level 1 MOSFET.
Instance "m7": Width narrower than recommended for a level 1 MOSFET.
Instance "m5": Length shorter than recommended for a level 1 MOSFET.
Instance "m5": Width narrower than recommended for a level 1 MOSFET.
Instance "m3": Length shorter than recommended for a level 1 MOSFET.
Instance "m3": Width narrower than recommended for a level 1 MOSFET.
Instance "m:x1:2": Length shorter than recommended for a level 1 MOSFET.
Instance "m:x1:2": Width narrower than recommended for a level 1 MOSFET.
Instance "m1": Length shorter than recommended for a level 1 MOSFET.
Instance "m1": Width narrower than recommended for a level 1 MOSFET.
Direct Newton iteration for .op point succeeded.
Heightened Def Con from 2.00581e-007 to 2.00581e-007
Heightened Def Con from 8.50067e-006 ++++++to 8.50067e-006
Heightened Def Con from 1.02006e-005 to 1.02006e-005
Heightened Def Con from 1.65007e-005 ++++++++++++++++++to 1.65007e-005

Date: Sat Jun 03 10:02:31 2023
Total elapsed time: 0.339 seconds.

tnom = 27
temp = 27
method = Gear
totiter = 10641
traniter = 10623
tranpoints = 2810
accept = 2161
rejected = 677
matrix size = 19
fillins = 0
solver = Normal
Thread vector: 10.5/8.1[2] 5.2/4.5[2] 1.2/1.9[1] 0.3/1.3[1]  2592/500
Matrix Compiler1: 1.75 KB object code size  0.9/0.3/[0.3]
Matrix Compiler2: off  [0.3]/0.4/0.3

