Circuit: * D:\ltspice\Draft5.asc

Warning: toxe, toxp and dtox all given and toxe != toxp + dtox; dtox ignored.
Direct Newton iteration failed to find .op point.  (Use ".option noopiter" to skip.)
Starting Gmin stepping
Gmin = 10
Gmin = 1.07374
Gmin = 0.115292
Gmin = 0.0123794
Gmin = 0.00132923
Gmin = 0.000142725
Gmin = 1.5325e-005
Gmin = 1.6455e-006
Gmin = 1.76685e-007
Gmin = 1.89714e-008
Gmin = 2.03704e-009
Gmin = 2.18725e-010
Gmin = 2.34854e-011
Gmin = 2.52173e-012
Gmin = 2.70769e-013
Gmin = 0
Gmin stepping succeeded in finding the operating point.


Date: Fri Jun 16 20:52:02 2023
Total elapsed time: 3.291 seconds.

tnom = 27
temp = 27
method = modified trap
totiter = 16341
traniter = 15914
tranpoints = 6029
accept = 5262
rejected = 767
matrix size = 240
fillins = 4
solver = Normal
Thread vector: 212.0/125.7[4] 29.1/13.2[4] 9.6/5.0[4] 3.5/6.3[1]  2592/500
Matrix Compiler1: 36.00 KB object code size  22.5/13.7/[6.8]
Matrix Compiler2: 31.05 KB object code size  10.2/9.6/[5.4]

