Circuit: * D:\ltspice\Draft1.asc

Warning: toxe, toxp and dtox all given and toxe != toxp + dtox; dtox ignored.
Direct Newton iteration failed to find .op point.  (Use ".option noopiter" to skip.)
Starting Gmin stepping
Gmin = 10
Gmin = 1.07374
Gmin = 0.115292
Gmin = 0.0123794
Gmin = 0.00132923
Gmin = 0.000142725
Gmin = 1.5325e-005
Gmin = 1.6455e-006
Gmin = 1.76685e-007
Gmin = 1.89714e-008
Gmin = 2.03704e-009
Gmin = 2.18725e-010
Gmin = 2.34854e-011
Gmin = 2.52173e-012
Gmin = 2.70769e-013
Gmin = 0
Gmin stepping succeeded in finding the operating point.


Date: Fri Jun 16 20:49:17 2023
Total elapsed time: 0.425 seconds.

tnom = 27
temp = 27
method = modified trap
totiter = 2600
traniter = 2205
tranpoints = 1074
accept = 1066
rejected = 8
matrix size = 84
fillins = 0
solver = Normal
Matrix Compiler1: 10.33 KB object code size  3.8/1.5/[1.1]
Matrix Compiler2: 9.81 KB object code size  1.8/2.3/[1.3]

