Circuit: * D:\ltspice\ffd_up (1).asc

Instance "m21": Length shorter than recommended for a level 1 MOSFET.
Instance "m21": Width narrower than recommended for a level 1 MOSFET.
Instance "m19": Length shorter than recommended for a level 1 MOSFET.
Instance "m19": Width narrower than recommended for a level 1 MOSFET.
Instance "m2": Length shorter than recommended for a level 1 MOSFET.
Instance "m2": Width narrower than recommended for a level 1 MOSFET.
Instance "m17": Length shorter than recommended for a level 1 MOSFET.
Instance "m17": Width narrower than recommended for a level 1 MOSFET.
Instance "m11": Length shorter than recommended for a level 1 MOSFET.
Instance "m11": Width narrower than recommended for a level 1 MOSFET.
Instance "m15": Length shorter than recommended for a level 1 MOSFET.
Instance "m15": Width narrower than recommended for a level 1 MOSFET.
Instance "m13": Length shorter than recommended for a level 1 MOSFET.
Instance "m13": Width narrower than recommended for a level 1 MOSFET.
Instance "m9": Length shorter than recommended for a level 1 MOSFET.
Instance "m9": Width narrower than recommended for a level 1 MOSFET.
Instance "m8": Length shorter than recommended for a level 1 MOSFET.
Instance "m8": Width narrower than recommended for a level 1 MOSFET.
Instance "m6": Length shorter than recommended for a level 1 MOSFET.
Instance "m6": Width narrower than recommended for a level 1 MOSFET.
Instance "m4": Length shorter than recommended for a level 1 MOSFET.
Instance "m4": Width narrower than recommended for a level 1 MOSFET.
Instance "m22": Length shorter than recommended for a level 1 MOSFET.
Instance "m22": Width narrower than recommended for a level 1 MOSFET.
Instance "m20": Length shorter than recommended for a level 1 MOSFET.
Instance "m20": Width narrower than recommended for a level 1 MOSFET.
Instance "m1": Length shorter than recommended for a level 1 MOSFET.
Instance "m1": Width narrower than recommended for a level 1 MOSFET.
Instance "m18": Length shorter than recommended for a level 1 MOSFET.
Instance "m18": Width narrower than recommended for a level 1 MOSFET.
Instance "m12": Length shorter than recommended for a level 1 MOSFET.
Instance "m12": Width narrower than recommended for a level 1 MOSFET.
Instance "m16": Length shorter than recommended for a level 1 MOSFET.
Instance "m16": Width narrower than recommended for a level 1 MOSFET.
Instance "m14": Length shorter than recommended for a level 1 MOSFET.
Instance "m14": Width narrower than recommended for a level 1 MOSFET.
Instance "m10": Length shorter than recommended for a level 1 MOSFET.
Instance "m10": Width narrower than recommended for a level 1 MOSFET.
Instance "m7": Length shorter than recommended for a level 1 MOSFET.
Instance "m7": Width narrower than recommended for a level 1 MOSFET.
Instance "m5": Length shorter than recommended for a level 1 MOSFET.
Instance "m5": Width narrower than recommended for a level 1 MOSFET.
Instance "m3": Length shorter than recommended for a level 1 MOSFET.
Instance "m3": Width narrower than recommended for a level 1 MOSFET.
Per .tran options, skipping operating point for transient analysis.
Changing Tseed to 6.83594e-015
Changing Tseed to 6.83594e-017
Changing Tseed to 6.83594e-014
Changing Tseed to 6.83594e-018
Changing Tseed to 6.83594e-013
Changing Tseed to 6.83594e-019
Changing Tseed to 6.83594e-012
Changing Tseed to 6.83594e-020
Changing Tseed to 6.83594e-011
Changing Tseed to 6.83594e-021
Changing Tseed to 6.83594e-010
Changing Tseed to 6.83594e-022
Heightened Def Con from 0 Changing Tseed to 6.83594e-011
Changing Tseed to 6.83594e-013
Changing Tseed to 6.83594e-010
Changing Tseed to 6.83594e-014
Changing Tseed to 6.83594e-009
Changing Tseed to 6.83594e-015
Changing Tseed to 6.83594e-008
Changing Tseed to 6.83594e-016
Changing Tseed to 6.83594e-007
Changing Tseed to 6.83594e-017
Changing Tseed to 6.83594e-006
Changing Tseed to 6.83594e-018
+Changing Tseed to 6.83594e-011
Changing Tseed to 6.83594e-013
Changing Tseed to 6.83594e-010
Changing Tseed to 6.83594e-014
Changing Tseed to 6.83594e-009
Changing Tseed to 6.83594e-015
Changing Tseed to 6.83594e-008
Changing Tseed to 6.83594e-016
Changing Tseed to 6.83594e-007
Changing Tseed to 6.83594e-017
Changing Tseed to 6.83594e-006
Changing Tseed to 6.83594e-018
+Changing Tseed to 6.83594e-011
Changing Tseed to 6.83594e-013
Changing Tseed to 6.83594e-010
Changing Tseed to 6.83594e-014
Changing Tseed to 6.83594e-009
Changing Tseed to 6.83594e-015
Changing Tseed to 6.83594e-008
Changing Tseed to 6.83594e-016
Changing Tseed to 6.83594e-007
Changing Tseed to 6.83594e-017
Changing Tseed to 6.83594e-006
Changing Tseed to 6.83594e-018
+Changing Tseed to 6.83594e-011
Changing Tseed to 6.83594e-013
Changing Tseed to 6.83594e-010
Changing Tseed to 6.83594e-014
Changing Tseed to 6.83594e-009
Changing Tseed to 6.83594e-015
Changing Tseed to 6.83594e-008
Changing Tseed to 6.83594e-016
Changing Tseed to 6.83594e-007
Changing Tseed to 6.83594e-017
Changing Tseed to 6.83594e-006
Changing Tseed to 6.83594e-018
+Changing Tseed to 6.83594e-011
Changing Tseed to 6.83594e-013
Changing Tseed to 6.83594e-010
Changing Tseed to 6.83594e-014
Changing Tseed to 6.83594e-009
Changing Tseed to 6.83594e-015
Changing Tseed to 6.83594e-008
Changing Tseed to 6.83594e-016
Changing Tseed to 6.83594e-007
Changing Tseed to 6.83594e-017
Changing Tseed to 6.83594e-006
Changing Tseed to 6.83594e-018
+Changing Tseed to 6.83594e-011
Changing Tseed to 6.83594e-013
Changing Tseed to 6.83594e-010
Changing Tseed to 6.83594e-014
Changing Tseed to 6.83594e-009
Changing Tseed to 6.83594e-015
Changing Tseed to 6.83594e-008
Changing Tseed to 6.83594e-016
Changing Tseed to 6.83594e-007
Changing Tseed to 6.83594e-017
Changing Tseed to 6.83594e-006
Changing Tseed to 6.83594e-018
+Changing Tseed to 6.83594e-011
Changing Tseed to 6.83594e-013
Changing Tseed to 6.83594e-010
Changing Tseed to 6.83594e-014
Changing Tseed to 6.83594e-009
Changing Tseed to 6.83594e-015
Changing Tseed to 6.83594e-008
Changing Tseed to 6.83594e-016
Changing Tseed to 6.83594e-007
Changing Tseed to 6.83594e-017
Changing Tseed to 6.83594e-006
Changing Tseed to 6.83594e-018
+Changing Tseed to 6.83594e-011
Changing Tseed to 6.83594e-013
Changing Tseed to 6.83594e-010
Changing Tseed to 6.83594e-014
Changing Tseed to 6.83594e-009
Changing Tseed to 6.83594e-015
Changing Tseed to 6.83594e-008
Changing Tseed to 6.83594e-016
Changing Tseed to 6.83594e-007
Changing Tseed to 6.83594e-017
Changing Tseed to 6.83594e-006
Changing Tseed to 6.83594e-018
+Changing Tseed to 6.83594e-011
Changing Tseed to 6.83594e-013
Changing Tseed to 6.83594e-010
Changing Tseed to 6.83594e-014
Changing Tseed to 6.83594e-009
Changing Tseed to 6.83594e-015
Changing Tseed to 6.83594e-008
Changing Tseed to 6.83594e-016
Changing Tseed to 6.83594e-007
Changing Tseed to 6.83594e-017
Changing Tseed to 6.83594e-006
Changing Tseed to 6.83594e-018
+Changing Tseed to 6.83594e-011
Changing Tseed to 6.83594e-013
Changing Tseed to 6.83594e-010
Changing Tseed to 6.83594e-014
Changing Tseed to 6.83594e-009
Changing Tseed to 6.83594e-015
Changing Tseed to 6.83594e-008
Changing Tseed to 6.83594e-016
Changing Tseed to 6.83594e-007
Changing Tseed to 6.83594e-017
Changing Tseed to 6.83594e-006
Changing Tseed to 6.83594e-018
+Changing Tseed to 6.83594e-011
Changing Tseed to 6.83594e-013
Changing Tseed to 6.83594e-010
Changing Tseed to 6.83594e-014
Changing Tseed to 6.83594e-009
Changing Tseed to 6.83594e-015
Changing Tseed to 6.83594e-008
Changing Tseed to 6.83594e-016
Changing Tseed to 6.83594e-007
Changing Tseed to 6.83594e-017
Changing Tseed to 6.83594e-006
Changing Tseed to 6.83594e-018
+Changing Tseed to 6.83594e-011
Changing Tseed to 6.83594e-013
Changing Tseed to 6.83594e-010
Changing Tseed to 6.83594e-014
Changing Tseed to 6.83594e-009
Changing Tseed to 6.83594e-015
Changing Tseed to 6.83594e-008
Changing Tseed to 6.83594e-016
Changing Tseed to 6.83594e-007
Changing Tseed to 6.83594e-017
Changing Tseed to 6.83594e-006
Changing Tseed to 6.83594e-018
+Changing Tseed to 6.83594e-011
Changing Tseed to 6.83594e-013
Changing Tseed to 6.83594e-010
Changing Tseed to 6.83594e-014
Changing Tseed to 6.83594e-009
Changing Tseed to 6.83594e-015
Changing Tseed to 6.83594e-008
Changing Tseed to 6.83594e-016
Changing Tseed to 6.83594e-007
Changing Tseed to 6.83594e-017
Changing Tseed to 6.83594e-006
Changing Tseed to 6.83594e-018
+Changing Tseed to 6.83594e-011
Changing Tseed to 6.83594e-013
Changing Tseed to 6.83594e-010
Changing Tseed to 6.83594e-014
Changing Tseed to 6.83594e-009
Changing Tseed to 6.83594e-015
Changing Tseed to 6.83594e-008
Changing Tseed to 6.83594e-016
Changing Tseed to 6.83594e-007
Changing Tseed to 6.83594e-017
Changing Tseed to 6.83594e-006
Changing Tseed to 6.83594e-018
+Changing Tseed to 6.83594e-011
Changing Tseed to 6.83594e-013
Changing Tseed to 6.83594e-010
Changing Tseed to 6.83594e-014
Changing Tseed to 6.83594e-009
Changing Tseed to 6.83594e-015
Changing Tseed to 6.83594e-008
Changing Tseed to 6.83594e-016
Changing Tseed to 6.83594e-007
Changing Tseed to 6.83594e-017
Changing Tseed to 6.83594e-006
Changing Tseed to 6.83594e-018
+Changing Tseed to 6.83594e-011
Changing Tseed to 6.83594e-013
Changing Tseed to 6.83594e-010
Changing Tseed to 6.83594e-014
Changing Tseed to 6.83594e-009
Changing Tseed to 6.83594e-015
Changing Tseed to 6.83594e-008
Changing Tseed to 6.83594e-016
Changing Tseed to 6.83594e-007
Changing Tseed to 6.83594e-017
Changing Tseed to 6.83594e-006
Changing Tseed to 6.83594e-018
+Changing Tseed to 6.83594e-011
Changing Tseed to 6.83594e-013
Changing Tseed to 6.83594e-010
Changing Tseed to 6.83594e-014
Changing Tseed to 6.83594e-009
Changing Tseed to 6.83594e-015
Changing Tseed to 6.83594e-008
Changing Tseed to 6.83594e-016
Changing Tseed to 6.83594e-007
Changing Tseed to 6.83594e-017
Changing Tseed to 6.83594e-006
Changing Tseed to 6.83594e-018
+Changing Tseed to 6.83594e-011
Changing Tseed to 6.83594e-013
Changing Tseed to 6.83594e-010
Changing Tseed to 6.83594e-014
Changing Tseed to 6.83594e-009
Changing Tseed to 6.83594e-015
Changing Tseed to 6.83594e-008
Changing Tseed to 6.83594e-016
Changing Tseed to 6.83594e-007
Changing Tseed to 6.83594e-017
Changing Tseed to 6.83594e-006
Changing Tseed to 6.83594e-018
+Changing Tseed to 6.83594e-011
Changing Tseed to 6.83594e-013
Changing Tseed to 6.83594e-010
Changing Tseed to 6.83594e-014
Changing Tseed to 6.83594e-009
Changing Tseed to 6.83594e-015
Changing Tseed to 6.83594e-008
Changing Tseed to 6.83594e-016
Changing Tseed to 6.83594e-007
Changing Tseed to 6.83594e-017
Changing Tseed to 6.83594e-006
Changing Tseed to 6.83594e-018
+Changing Tseed to 6.83594e-011
Changing Tseed to 6.83594e-013
Changing Tseed to 6.83594e-010
Changing Tseed to 6.83594e-014
Changing Tseed to 6.83594e-009
Changing Tseed to 6.83594e-015
Changing Tseed to 6.83594e-008
Changing Tseed to 6.83594e-016
Changing Tseed to 6.83594e-007
Changing Tseed to 6.83594e-017
Changing Tseed to 6.83594e-006
Changing Tseed to 6.83594e-018
+Changing Tseed to 6.83594e-011
Changing Tseed to 6.83594e-013
Changing Tseed to 6.83594e-010
Changing Tseed to 6.83594e-014
Changing Tseed to 6.83594e-009
Changing Tseed to 6.83594e-015
Changing Tseed to 6.83594e-008
Changing Tseed to 6.83594e-016
Changing Tseed to 6.83594e-007
Changing Tseed to 6.83594e-017
Changing Tseed to 6.83594e-006
Changing Tseed to 6.83594e-018
+Changing Tseed to 6.83594e-011
Changing Tseed to 6.83594e-013
Changing Tseed to 6.83594e-010
Changing Tseed to 6.83594e-014
Changing Tseed to 6.83594e-009
to 6.9043e-009
Heightened Def Con from 6.9043e-009 +++++++++++++++++++to 6.97266e-009
Heightened Def Con from 1.50006e-008 +++++++++++++to 1.50006e-008

Date: Fri Jun 09 16:04:20 2023
Total elapsed time: 0.262 seconds.

tnom = 27
temp = 27
method = Gear
totiter = 10057
traniter = 10057
tranpoints = 1824
accept = 1143
rejected = 468
matrix size = 17
fillins = 0
solver = Normal
Thread vector: 7.5/4.9[2] 3.9/2.9[2] 1.0/1.1[1] 0.2/1.4[1]  2592/500
Matrix Compiler1:      93 opcodes  0.6/[0.3]/11.6
Matrix Compiler2: off  [0.3]/0.3/11.7

