Circuit: * D:\ltspice\Final_PFD.asc

Instance "m:x4:5": Length shorter than recommended for a level 1 MOSFET.
Instance "m:x4:5": Width narrower than recommended for a level 1 MOSFET.
Instance "m:x4:3": Length shorter than recommended for a level 1 MOSFET.
Instance "m:x4:3": Width narrower than recommended for a level 1 MOSFET.
Instance "m:x4:1": Length shorter than recommended for a level 1 MOSFET.
Instance "m:x4:1": Width narrower than recommended for a level 1 MOSFET.
Instance "m:x3:x5:1": Length shorter than recommended for a level 1 MOSFET.
Instance "m:x3:x5:1": Width narrower than recommended for a level 1 MOSFET.
Instance "m:x3:x4:1": Length shorter than recommended for a level 1 MOSFET.
Instance "m:x3:x4:1": Width narrower than recommended for a level 1 MOSFET.
Instance "m:x3:x6:1": Length shorter than recommended for a level 1 MOSFET.
Instance "m:x3:x6:1": Width narrower than recommended for a level 1 MOSFET.
Instance "m:x3:x3:1": Length shorter than recommended for a level 1 MOSFET.
Instance "m:x3:x3:1": Width narrower than recommended for a level 1 MOSFET.
Instance "m:x3:x7:2": Length shorter than recommended for a level 1 MOSFET.
Instance "m:x3:x7:2": Width narrower than recommended for a level 1 MOSFET.
Instance "m:x3:x7:1": Length shorter than recommended for a level 1 MOSFET.
Instance "m:x3:x7:1": Width narrower than recommended for a level 1 MOSFET.
Instance "m:x3:x1:2": Length shorter than recommended for a level 1 MOSFET.
Instance "m:x3:x1:2": Width narrower than recommended for a level 1 MOSFET.
Instance "m:x3:x1:1": Length shorter than recommended for a level 1 MOSFET.
Instance "m:x3:x1:1": Width narrower than recommended for a level 1 MOSFET.
Instance "m:x3:8": Length shorter than recommended for a level 1 MOSFET.
Instance "m:x3:8": Width narrower than recommended for a level 1 MOSFET.
Instance "m:x3:6": Length shorter than recommended for a level 1 MOSFET.
Instance "m:x3:6": Width narrower than recommended for a level 1 MOSFET.
Instance "m:x3:4": Length shorter than recommended for a level 1 MOSFET.
Instance "m:x3:4": Width narrower than recommended for a level 1 MOSFET.
Instance "m:x3:x2:1": Length shorter than recommended for a level 1 MOSFET.
Instance "m:x3:x2:1": Width narrower than recommended for a level 1 MOSFET.
Instance "m:x3:2": Length shorter than recommended for a level 1 MOSFET.
Instance "m:x3:2": Width narrower than recommended for a level 1 MOSFET.
Instance "m:x2:x5:1": Length shorter than recommended for a level 1 MOSFET.
Instance "m:x2:x5:1": Width narrower than recommended for a level 1 MOSFET.
Instance "m:x2:x4:1": Length shorter than recommended for a level 1 MOSFET.
Instance "m:x2:x4:1": Width narrower than recommended for a level 1 MOSFET.
Instance "m:x2:x6:1": Length shorter than recommended for a level 1 MOSFET.
Instance "m:x2:x6:1": Width narrower than recommended for a level 1 MOSFET.
Instance "m:x2:x3:1": Length shorter than recommended for a level 1 MOSFET.
Instance "m:x2:x3:1": Width narrower than recommended for a level 1 MOSFET.
Instance "m:x2:x7:2": Length shorter than recommended for a level 1 MOSFET.
Instance "m:x2:x7:2": Width narrower than recommended for a level 1 MOSFET.
Instance "m:x2:x7:1": Length shorter than recommended for a level 1 MOSFET.
Instance "m:x2:x7:1": Width narrower than recommended for a level 1 MOSFET.
Instance "m:x2:x1:2": Length shorter than recommended for a level 1 MOSFET.
Instance "m:x2:x1:2": Width narrower than recommended for a level 1 MOSFET.
Instance "m:x2:x1:1": Length shorter than recommended for a level 1 MOSFET.
Instance "m:x2:x1:1": Width narrower than recommended for a level 1 MOSFET.
Instance "m:x2:8": Length shorter than recommended for a level 1 MOSFET.
Instance "m:x2:8": Width narrower than recommended for a level 1 MOSFET.
Instance "m:x2:6": Length shorter than recommended for a level 1 MOSFET.
Instance "m:x2:6": Width narrower than recommended for a level 1 MOSFET.
Instance "m:x2:4": Length shorter than recommended for a level 1 MOSFET.
Instance "m:x2:4": Width narrower than recommended for a level 1 MOSFET.
Instance "m:x2:x2:1": Length shorter than recommended for a level 1 MOSFET.
Instance "m:x2:x2:1": Width narrower than recommended for a level 1 MOSFET.
Instance "m:x2:2": Length shorter than recommended for a level 1 MOSFET.
Instance "m:x2:2": Width narrower than recommended for a level 1 MOSFET.
Instance "m:x4:6": Length shorter than recommended for a level 1 MOSFET.
Instance "m:x4:6": Width narrower than recommended for a level 1 MOSFET.
Instance "m:x4:4": Length shorter than recommended for a level 1 MOSFET.
Instance "m:x4:4": Width narrower than recommended for a level 1 MOSFET.
Instance "m:x4:2": Length shorter than recommended for a level 1 MOSFET.
Instance "m:x4:2": Width narrower than recommended for a level 1 MOSFET.
Instance "m:x3:x5:2": Length shorter than recommended for a level 1 MOSFET.
Instance "m:x3:x5:2": Width narrower than recommended for a level 1 MOSFET.
Instance "m:x3:x4:2": Length shorter than recommended for a level 1 MOSFET.
Instance "m:x3:x4:2": Width narrower than recommended for a level 1 MOSFET.
Instance "m:x3:x6:2": Length shorter than recommended for a level 1 MOSFET.
Instance "m:x3:x6:2": Width narrower than recommended for a level 1 MOSFET.
Instance "m:x3:x3:2": Length shorter than recommended for a level 1 MOSFET.
Instance "m:x3:x3:2": Width narrower than recommended for a level 1 MOSFET.
Instance "m:x3:x7:4": Length shorter than recommended for a level 1 MOSFET.
Instance "m:x3:x7:4": Width narrower than recommended for a level 1 MOSFET.
Instance "m:x3:x7:3": Length shorter than recommended for a level 1 MOSFET.
Instance "m:x3:x7:3": Width narrower than recommended for a level 1 MOSFET.
Instance "m:x3:x1:4": Length shorter than recommended for a level 1 MOSFET.
Instance "m:x3:x1:4": Width narrower than recommended for a level 1 MOSFET.
Instance "m:x3:x1:3": Length shorter than recommended for a level 1 MOSFET.
Instance "m:x3:x1:3": Width narrower than recommended for a level 1 MOSFET.
Instance "m:x3:7": Length shorter than recommended for a level 1 MOSFET.
Instance "m:x3:7": Width narrower than recommended for a level 1 MOSFET.
Instance "m:x3:5": Length shorter than recommended for a level 1 MOSFET.
Instance "m:x3:5": Width narrower than recommended for a level 1 MOSFET.
Instance "m:x3:3": Length shorter than recommended for a level 1 MOSFET.
Instance "m:x3:3": Width narrower than recommended for a level 1 MOSFET.
Instance "m:x3:x2:2": Length shorter than recommended for a level 1 MOSFET.
Instance "m:x3:x2:2": Width narrower than recommended for a level 1 MOSFET.
Instance "m:x3:1": Length shorter than recommended for a level 1 MOSFET.
Instance "m:x3:1": Width narrower than recommended for a level 1 MOSFET.
Instance "m:x2:x5:2": Length shorter than recommended for a level 1 MOSFET.
Instance "m:x2:x5:2": Width narrower than recommended for a level 1 MOSFET.
Instance "m:x2:x4:2": Length shorter than recommended for a level 1 MOSFET.
Instance "m:x2:x4:2": Width narrower than recommended for a level 1 MOSFET.
Instance "m:x2:x6:2": Length shorter than recommended for a level 1 MOSFET.
Instance "m:x2:x6:2": Width narrower than recommended for a level 1 MOSFET.
Instance "m:x2:x3:2": Length shorter than recommended for a level 1 MOSFET.
Instance "m:x2:x3:2": Width narrower than recommended for a level 1 MOSFET.
Instance "m:x2:x7:4": Length shorter than recommended for a level 1 MOSFET.
Instance "m:x2:x7:4": Width narrower than recommended for a level 1 MOSFET.
Instance "m:x2:x7:3": Length shorter than recommended for a level 1 MOSFET.
Instance "m:x2:x7:3": Width narrower than recommended for a level 1 MOSFET.
Instance "m:x2:x1:4": Length shorter than recommended for a level 1 MOSFET.
Instance "m:x2:x1:4": Width narrower than recommended for a level 1 MOSFET.
Instance "m:x2:x1:3": Length shorter than recommended for a level 1 MOSFET.
Instance "m:x2:x1:3": Width narrower than recommended for a level 1 MOSFET.
Instance "m:x2:7": Length shorter than recommended for a level 1 MOSFET.
Instance "m:x2:7": Width narrower than recommended for a level 1 MOSFET.
Instance "m:x2:5": Length shorter than recommended for a level 1 MOSFET.
Instance "m:x2:5": Width narrower than recommended for a level 1 MOSFET.
Instance "m:x2:3": Length shorter than recommended for a level 1 MOSFET.
Instance "m:x2:3": Width narrower than recommended for a level 1 MOSFET.
Instance "m:x2:x2:2": Length shorter than recommended for a level 1 MOSFET.
Instance "m:x2:x2:2": Width narrower than recommended for a level 1 MOSFET.
Instance "m:x2:1": Length shorter than recommended for a level 1 MOSFET.
Instance "m:x2:1": Width narrower than recommended for a level 1 MOSFET.
Direct Newton iteration failed to find .op point.  (Use ".option noopiter" to skip.)
Starting Gmin stepping
Gmin = 10
Gmin = 1.07374
Gmin = 0.115292
Gmin = 0.0123794
Gmin = 0.00132923
Gmin = 0.000142725
Gmin = 1.5325e-005
Gmin = 1.6455e-006
Gmin = 1.76685e-007
Gmin = 1.89714e-008
Gmin = 2.03704e-009
Gmin = 2.18725e-010
Gmin = 2.34854e-011
Gmin = 2.52173e-012
Gmin = 2.70769e-013
Gmin = 0
Gmin stepping succeeded in finding the operating point.

Heightened Def Con from 1e-006 +++++++++++++++to 1e-006
Heightened Def Con from 1.3e-006 ++++++++++++++to 1.3e-006
Heightened Def Con from 1.3e-006 ++++++++++++++++++++++to 1.3e-006
Heightened Def Con from 1.3e-006 +++++++++++++++++++++to 1.3001e-006
Heightened Def Con from 1.3001e-006 ++++++++++++++++++++to 1.3011e-006
Heightened Def Con from 1.8e-006 +++++++++++++++++++++to 1.8e-006
Heightened Def Con from 1.8e-006 ++++++++++++++++++++to 1.8001e-006
Heightened Def Con from 2.3e-006 +++++++++++++++to 2.3e-006
Heightened Def Con from 3e-006 ++++++++++++++++++++++to 3e-006
Heightened Def Con from 3e-006 +++++++++++++++++++++to 3.0001e-006
Heightened Def Con from 3.0001e-006 ++++++++++++++++++++to 3.0011e-006
Heightened Def Con from 3.3e-006 +++++++++++++++to 3.3e-006
Heightened Def Con from 5e-006 ++++++++++++++++++++++to 5e-006
Heightened Def Con from 5e-006 +++++++++++++++++++++to 5.0001e-006
Heightened Def Con from 5.0001e-006 ++++++++++++++++++++to 5.0011e-006
Heightened Def Con from 5.3e-006 +++++++++++++++to 5.3e-006
Heightened Def Con from 7e-006 ++++++++++++++++++++++to 7e-006
Heightened Def Con from 7e-006 +++++++++++++++++++++to 7.0001e-006
Heightened Def Con from 7.0001e-006 ++++++++++++++++++++to 7.0011e-006
Heightened Def Con from 7.3e-006 +++++++++++++++to 7.3e-006
Heightened Def Con from 9e-006 ++++++++++++++++++++++to 9e-006
Heightened Def Con from 9e-006 +++++++++++++++++++++to 9.0001e-006
Heightened Def Con from 9.0001e-006 ++++++++++++++++++++to 9.0011e-006
Heightened Def Con from 9.3e-006 +++++++++++++++to 9.3e-006

Date: Mon Apr 10 12:47:53 2023
Total elapsed time: 2.025 seconds.

tnom = 27
temp = 27
method = modified trap
totiter = 61106
traniter = 60634
tranpoints = 7923
accept = 3547
rejected = 4860
matrix size = 35
fillins = 34
solver = Normal
Thread vector: 42.5/23.2[4] 16.5/12.1[4] 4.3/7.3[1] 0.7/9.6[1]  2592/500
Matrix Compiler1: 6.12 KB object code size  2.4/1.5/[1.3]
Matrix Compiler2: 5.24 KB object code size  2.2/2.2/[0.9]

