Circuit: * D:\ltspice\PFD3.asc

WARNING: Node N008 is floating.

Instance "m28": Length shorter than recommended for a level 1 MOSFET.
Instance "m28": Width narrower than recommended for a level 1 MOSFET.
Instance "m19": Length shorter than recommended for a level 1 MOSFET.
Instance "m19": Width narrower than recommended for a level 1 MOSFET.
Instance "m18": Length shorter than recommended for a level 1 MOSFET.
Instance "m18": Width narrower than recommended for a level 1 MOSFET.
Instance "m17": Length shorter than recommended for a level 1 MOSFET.
Instance "m17": Width narrower than recommended for a level 1 MOSFET.
Instance "m16": Length shorter than recommended for a level 1 MOSFET.
Instance "m16": Width narrower than recommended for a level 1 MOSFET.
Instance "m15": Length shorter than recommended for a level 1 MOSFET.
Instance "m15": Width narrower than recommended for a level 1 MOSFET.
Instance "m14": Length shorter than recommended for a level 1 MOSFET.
Instance "m14": Width narrower than recommended for a level 1 MOSFET.
Instance "m11": Length shorter than recommended for a level 1 MOSFET.
Instance "m11": Width narrower than recommended for a level 1 MOSFET.
Instance "m8": Length shorter than recommended for a level 1 MOSFET.
Instance "m8": Width narrower than recommended for a level 1 MOSFET.
Instance "m7": Length shorter than recommended for a level 1 MOSFET.
Instance "m7": Width narrower than recommended for a level 1 MOSFET.
Instance "m6": Length shorter than recommended for a level 1 MOSFET.
Instance "m6": Width narrower than recommended for a level 1 MOSFET.
Instance "m5": Length shorter than recommended for a level 1 MOSFET.
Instance "m5": Width narrower than recommended for a level 1 MOSFET.
Instance "m4": Length shorter than recommended for a level 1 MOSFET.
Instance "m4": Width narrower than recommended for a level 1 MOSFET.
Instance "m3": Length shorter than recommended for a level 1 MOSFET.
Instance "m3": Width narrower than recommended for a level 1 MOSFET.
Instance "m26": Length shorter than recommended for a level 1 MOSFET.
Instance "m26": Width narrower than recommended for a level 1 MOSFET.
Instance "m24": Length shorter than recommended for a level 1 MOSFET.
Instance "m24": Width narrower than recommended for a level 1 MOSFET.
Instance "m23": Length shorter than recommended for a level 1 MOSFET.
Instance "m23": Width narrower than recommended for a level 1 MOSFET.
Instance "m27": Length shorter than recommended for a level 1 MOSFET.
Instance "m27": Width narrower than recommended for a level 1 MOSFET.
Instance "m20": Length shorter than recommended for a level 1 MOSFET.
Instance "m20": Width narrower than recommended for a level 1 MOSFET.
Instance "m13": Length shorter than recommended for a level 1 MOSFET.
Instance "m13": Width narrower than recommended for a level 1 MOSFET.
Instance "m12": Length shorter than recommended for a level 1 MOSFET.
Instance "m12": Width narrower than recommended for a level 1 MOSFET.
Instance "m10": Length shorter than recommended for a level 1 MOSFET.
Instance "m10": Width narrower than recommended for a level 1 MOSFET.
Instance "m9": Length shorter than recommended for a level 1 MOSFET.
Instance "m9": Width narrower than recommended for a level 1 MOSFET.
Instance "m2": Length shorter than recommended for a level 1 MOSFET.
Instance "m2": Width narrower than recommended for a level 1 MOSFET.
Instance "m1": Length shorter than recommended for a level 1 MOSFET.
Instance "m1": Width narrower than recommended for a level 1 MOSFET.
Instance "m25": Length shorter than recommended for a level 1 MOSFET.
Instance "m25": Width narrower than recommended for a level 1 MOSFET.
Instance "m22": Length shorter than recommended for a level 1 MOSFET.
Instance "m22": Width narrower than recommended for a level 1 MOSFET.
Instance "m21": Length shorter than recommended for a level 1 MOSFET.
Instance "m21": Width narrower than recommended for a level 1 MOSFET.
Direct Newton iteration for .op point succeeded.
Heightened Def Con from 1.5e-006 to 1.5e-006
Heightened Def Con from 2e-006 ++to 2e-006
Heightened Def Con from 2e-006 ++++to 2e-006
Heightened Def Con from 2e-006 ++++to 2e-006
Heightened Def Con from 2e-006 to 2e-006
Heightened Def Con from 3.5e-006 to 3.5e-006
Heightened Def Con from 4e-006 ++to 4e-006
Heightened Def Con from 4e-006 ++++to 4e-006
Heightened Def Con from 4e-006 ++++to 4e-006
Heightened Def Con from 4e-006 to 4e-006
Heightened Def Con from 5.5e-006 to 5.5e-006
Heightened Def Con from 6e-006 ++to 6e-006
Heightened Def Con from 6e-006 ++++to 6e-006
Heightened Def Con from 6e-006 ++++to 6e-006
Heightened Def Con from 6e-006 to 6e-006
Heightened Def Con from 7.5e-006 to 7.5e-006
Heightened Def Con from 8e-006 ++to 8e-006
Heightened Def Con from 8e-006 ++++to 8e-006
Heightened Def Con from 8e-006 ++++to 8e-006
Heightened Def Con from 8e-006 to 8e-006
Heightened Def Con from 9.5e-006 to 9.5e-006

Date: Sat Apr 01 09:26:37 2023
Total elapsed time: 0.416 seconds.

tnom = 27
temp = 27
method = modified trap
totiter = 11104
traniter = 11077
tranpoints = 2675
accept = 2220
rejected = 516
matrix size = 22
fillins = 6
solver = Normal
Thread vector: 29.1/9.3[2] 7.4/5.4[2] 1.9/3.2[1] 0.4/1.3[1]  2592/500
Matrix Compiler1: 2.54 KB object code size  1.1/0.6/[0.4]
Matrix Compiler2: 2.58 KB object code size  0.4/0.7/[0.3]

