Circuit: * D:\ltspice\PLL.asc

Direct Newton iteration for .op point succeeded.
Changing Tseed to 1e-010
Changing Tseed to 1e-012
Changing Tseed to 1e-009
Changing Tseed to 1e-013
Heightened Def Con from 2 to 2
Heightened Def Con from 2 to 2
Heightened Def Con from 2.4 to 2.4
Heightened Def Con from 2.4 to 2.4
Heightened Def Con from 3.2 to 3.2
Heightened Def Con from 3.2 to 3.2
Heightened Def Con from 3.6 to 3.6
Heightened Def Con from 3.6 to 3.6
Heightened Def Con from 4.4 to 4.4
Heightened Def Con from 4.4 to 4.4
Heightened Def Con from 4.8 to 4.8
Heightened Def Con from 4.8 to 4.8
Heightened Def Con from 5.6 to 5.6
Heightened Def Con from 5.6 to 5.6
Heightened Def Con from 6 to 6
Heightened Def Con from 6 to 6
Heightened Def Con from 6.8 to 6.8
Heightened Def Con from 6.8 to 6.8
Heightened Def Con from 7.2 to 7.2
Heightened Def Con from 7.2 to 7.2
Heightened Def Con from 8 to 8
Heightened Def Con from 8 to 8
Heightened Def Con from 8.4 to 8.4
Heightened Def Con from 8.4 to 8.4
Heightened Def Con from 9.2 to 9.2
Heightened Def Con from 9.2 to 9.2
Heightened Def Con from 9.6 to 9.6
Heightened Def Con from 9.6 to 9.6

Date: Sun Mar 26 21:52:41 2023
Total elapsed time: 0.340 seconds.

tnom = 27
temp = 27
method = modified trap
totiter = 20829
traniter = 20815
tranpoints = 6191
accept = 5430
rejected = 785
matrix size = 9
fillins = 0
solver = Normal
Matrix Compiler1: 368 bytes object code size  0.2/0.1/[0.1]
Matrix Compiler2: 743 bytes object code size  0.2/0.2/[0.2]

