Circuit: * D:\ltspice\q.asc

WARNING: Less than two connections to node NC_01.  This node is used by S:U1:1.
Per .tran options, skipping operating point for transient analysis.

Date: Wed May 24 20:07:41 2023
Total elapsed time: 9.334 seconds.

tnom = 27
temp = 27
method = Gear
totiter = 1251913
traniter = 1251913
tranpoints = 311138
accept = 228493
rejected = 82645
matrix size = 23
fillins = 0
solver = Normal
Matrix Compiler1: 726 bytes object code size  0.4/0.2/[0.2]
Matrix Compiler2: 1.40 KB object code size  0.1/0.3/[0.1]

