Circuit: * D:\ltspice\VCO.asc

Warning: toxe, toxp and dtox all given and toxe != toxp + dtox; dtox ignored.
Direct Newton iteration failed to find .op point.  (Use ".option noopiter" to skip.)
Starting Gmin stepping
Gmin = 10
Gmin = 1.07374
Gmin = 0.115292
Gmin = 0.0123794
Gmin = 0.00132923
Gmin = 0.000142725
Gmin = 1.5325e-005
Gmin = 1.6455e-006
Gmin = 1.76685e-007
Gmin = 1.89714e-008
Gmin = 2.03704e-009
Gmin = 2.18725e-010
Gmin = 2.34854e-011
Gmin = 2.52173e-012
Gmin = 2.70769e-013
Gmin = 0
Gmin stepping succeeded in finding the operating point.


Date: Fri Jun 16 20:45:05 2023
Total elapsed time: 2.036 seconds.

tnom = 27
temp = 27
method = modified trap
totiter = 23035
traniter = 22580
tranpoints = 5435
accept = 3933
rejected = 1502
matrix size = 126
fillins = 14
solver = Normal
Thread vector: 79.8/51.0[2] 14.8/8.2[2] 3.5/3.8[1] 1.4/2.0[1]  2592/500
Matrix Compiler1: 21.13 KB object code size  8.2/4.6/[3.3]
Matrix Compiler2: 16.23 KB object code size  2.9/3.6/[2.0]

