Circuit: * C:\Users\USER\Desktop\qqqqq\Draft2.asc

WARNING: Node X1:N013 is floating.
WARNING: Node X1:N014 is floating.

WARNING: Less than two connections to node X1:N013.  This node is used by M:X1:4.
WARNING: Less than two connections to node X1:N014.  This node is used by M:X1:5.
Warning: toxe, toxp and dtox all given and toxe != toxp + dtox; dtox ignored.
Instance "m:x1:x1:2": Length shorter than recommended for a level 1 MOSFET.
Instance "m:x1:x1:2": Width narrower than recommended for a level 1 MOSFET.
Instance "m:x1:x1:1": Length shorter than recommended for a level 1 MOSFET.
Instance "m:x1:x1:1": Width narrower than recommended for a level 1 MOSFET.
Direct Newton iteration for .op point succeeded.

Date: Fri Oct 27 11:22:58 2023
Total elapsed time: 0.511 seconds.

tnom = 27
temp = 27
method = modified trap
totiter = 5536
traniter = 5503
tranpoints = 2496
accept = 2252
rejected = 244
matrix size = 73
fillins = 12
solver = Normal
Matrix Compiler1: 9.42 KB object code size  3.6/2.1/[1.2]
Matrix Compiler2: 8.30 KB object code size  1.5/1.7/[1.6]

