Circuit: * D:\ltspice\qqqqq\PFD.asc

WARNING: Node R is floating.
WARNING: Node V is floating.

Warning: toxe, toxp and dtox all given and toxe != toxp + dtox; dtox ignored.
Direct Newton iteration failed to find .op point.  (Use ".option noopiter" to skip.)
Starting Gmin stepping
Gmin = 10
Gmin = 1.07374
Gmin = 0.115292
Gmin = 0.0123794
Gmin = 0.00132923
Gmin = 0.000142725
Gmin = 1.5325e-005
Gmin = 1.6455e-006
vernier = 0.5
vernier = 0.25
vernier = 0.125
vernier = 0.0625
vernier = 0.03125
vernier = 0.015625
vernier = 0.0078125
vernier = 0.00390625
Gmin = 1.3164e-006
vernier = 0.00195313
vernier = 0.000976563
vernier = 0.000488281
Gmin = 0
Gmin stepping failed

Starting source stepping with srcstepmethod=0
Source Step = 3.0303%
Source Step = 33.3333%
Source Step = 63.6364%
Source Step = 93.9394%
Source stepping succeeded in finding the operating point.


Date: Mon Jul 24 10:35:40 2023
Total elapsed time: 18.150 seconds.

tnom = 27
temp = 27
method = modified trap
totiter = 14391
traniter = 12375
tranpoints = 4163
accept = 3302
rejected = 861
matrix size = 640
fillins = 396
solver = Normal
Thread vector: 644.3/428.1[4] 103.7/65.9[4] 84.9/58.7[4] 13.1/19.2[1]  2592/500
Matrix Compiler1: 125.87 KB object code size  99.8/57.8/[38.6]
Matrix Compiler2: 88.50 KB object code size  42.9/45.7/[25.1]

