Circuit: * C:\Users\USER\Desktop\qqqqq\PLL.asc

WARNING: Node N002 is floating.

WARNING: Less than two connections to node VDD.  This node is used by VDD1.
Warning: toxe, toxp and dtox all given and toxe != toxp + dtox; dtox ignored.
Warning: toxe, toxp and dtox all given and toxe != toxp + dtox; dtox ignored.
Warning: toxe, toxp and dtox all given and toxe != toxp + dtox; dtox ignored.
Per .tran options, skipping operating point for transient analysis.
Heightened Def Con from 1.43972e-006 to 1.43972e-006

Date: Mon Dec 04 20:30:34 2023
Total elapsed time: 8.802 seconds.

tnom = 27
temp = 27
method = modified trap
totiter = 24050
traniter = 24050
tranpoints = 6288
accept = 4504
rejected = 1785
matrix size = 527
fillins = 104
solver = Normal
Thread vector: 421.4/220.7[4] 64.4/23.5[4] 17.5/9.0[4] 6.0/6.9[1]  2592/500
Matrix Compiler1: 87.87 KB object code size  60.2/28.7/[13.1]
Matrix Compiler2: 67.38 KB object code size  24.2/22.3/[8.4]

