Circuit: * D:\ltspice\qqqqq\VCO2.asc

Warning: toxe, toxp and dtox all given and toxe != toxp + dtox; dtox ignored.
Direct Newton iteration failed to find .op point.  (Use ".option noopiter" to skip.)
Starting Gmin stepping
Gmin = 10
Gmin = 1.07374
Gmin = 0.115292
Gmin = 0.0123794
Gmin = 0.00132923
Gmin = 0.000142725
Gmin = 1.5325e-005
Gmin = 1.6455e-006
Gmin = 1.76685e-007
Gmin = 1.89714e-008
Gmin = 2.03704e-009
Gmin = 2.18725e-010
Gmin = 2.34854e-011
Gmin = 2.52173e-012
Gmin = 2.70769e-013
Gmin = 0
Gmin stepping succeeded in finding the operating point.


Date: Wed Jul 19 07:54:40 2023
Total elapsed time: 0.974 seconds.

tnom = 27
temp = 27
method = modified trap
totiter = 5856
traniter = 5397
tranpoints = 1649
accept = 1325
rejected = 324
matrix size = 156
fillins = 30
solver = Normal
Thread vector: 127.3/69.8[3] 19.9/10.6[3] 6.7/4.1[3] 2.2/3.0[1]  2592/500
Matrix Compiler1: 23.64 KB object code size  11.4/6.4/[4.2]
Matrix Compiler2: 19.24 KB object code size  8.5/6.7/[2.9]

